44

P          1.06280        0.05130        0.05850
F         -0.59440        0.22930       -0.09490
F          1.01690       -1.33440       -0.88070
F          0.92300        0.06350        1.72790
Ag         3.52280        0.05130        0.05850
Br         3.01240       -1.92600        1.56590
C          3.00910        1.89410       -0.73580
C          2.66270        1.94850       -2.02980
C          5.67280        0.05130        0.05850
N          6.53460        1.13810       -0.04220
C          6.26760        2.60980       -0.00940
C          5.44150        2.88860        1.26800
C          7.55830        3.47480        0.12770
C          5.62930        3.07010       -1.32350
C          7.78120        0.62940        0.00480
C          7.71580       -0.71820        0.09640
N          6.43040       -1.10490        0.12920
C          6.03060       -2.53760        0.01150
C          5.94300       -3.17340        1.41610
C          4.78370       -2.66460       -0.91580
C          7.09150       -3.38260       -0.75390
H          2.96630        2.79310       -0.13570
H          2.68900        1.04350       -2.63040
H          2.36930        2.88440       -2.49270
H          6.04510        2.61520        2.16520
H          4.52500        2.27880        1.33530
H          5.17960        3.96410        1.35830
H          8.13720        3.21810        1.03980
H          7.29980        4.55580        0.18220
H          8.22520        3.34180       -0.75300
H          5.07760        2.25700       -1.79160
H          6.38760        3.25160       -2.11090
H          5.04930        4.01080       -1.18380
H          8.70640        1.18590       -0.02660
H          8.57940       -1.36360        0.11030
H          5.36990       -2.59170        2.14600
H          6.95470       -3.21060        1.87290
H          5.55140       -4.21420        1.36190
H          3.93670       -2.01790       -0.70040
H          4.42100       -3.71570       -0.96330
H          5.03500       -2.33010       -1.94250
H          8.05810       -3.44400       -0.21700
H          7.27960       -2.96260       -1.76560
H          6.73960       -4.43330       -0.87730
