33

P          0.94100        0.07420       -0.03190
F         -0.72040        0.26080       -0.11720
F          0.91900       -0.85970       -1.42120
F          0.79960       -0.59030        1.49780
Ag         3.40100        0.07420       -0.03190
Br         3.21650       -2.14700        1.10540
C          3.35570        1.50020       -1.58200
C          2.44360        2.45430       -1.76050
N          5.50100        0.07420       -0.03190
C          6.17340       -1.09040        0.22820
C          7.56490       -1.16550        0.16400
C          8.30670       -0.02890       -0.10150
C          7.65280        1.19830       -0.24960
C          8.39700        2.37620       -0.37570
C          7.75540        3.62040       -0.38680
C          6.35860        3.70120       -0.24460
C          5.61630        5.00470       -0.14470
O          4.40170        4.98500       -0.05230
C          6.27020        6.35960       -0.12680
C          5.62800        2.50150       -0.16550
C          6.23690        1.22910       -0.21460
H          4.15230        1.41200       -2.31550
H          1.61930        2.58950       -1.08260
H          2.53790        3.10530       -2.62780
H          5.66100       -2.01330        0.40220
H          8.06340       -2.11270        0.32930
H          9.38700       -0.08790       -0.12110
H          9.47760        2.34630       -0.41780
H          8.38120        4.49450       -0.44530
H          7.36910        6.33750       -0.20270
H          6.00970        6.87130        0.82520
H          5.87710        6.96460       -0.97030
H          4.58370        2.58450        0.03820
