39

P          1.05710       -0.06750        0.04670
F         -0.60650       -0.03320       -0.13480
F          1.03190       -1.74110        0.08920
F          0.95310        0.85610        1.43940
Ag         3.51710       -0.06750        0.04670
Br         3.32550       -0.92110        2.37640
C          3.51060        0.43100       -1.99820
C          2.51600        0.12490       -2.84510
P          5.97710       -0.06750        0.04670
O          7.33360        0.79660       -0.52700
C          6.86050        1.88830       -1.32500
C          7.06970        1.59910       -2.81300
O          6.60390       -0.56020        1.55810
C          6.39440        0.38110        2.57610
C          6.74900       -0.32350        3.88760
C          6.43870       -1.19460       -1.34350
C          5.52390       -1.90370       -2.14680
C          5.96920       -2.73050       -3.19420
C          7.34310       -2.88800       -3.45300
C          8.26260       -2.24780       -2.64350
C          7.82840       -1.44310       -1.59930
H          4.38750        0.88030       -2.42520
H          1.60650       -0.36880       -2.53460
H          2.61060        0.35760       -3.90080
H          7.43610        2.79800       -1.05790
H          5.79610        2.17060       -1.14330
H          8.14290        1.41620       -3.01290
H          6.71580        2.45290       -3.42690
H          6.50540        0.70050       -3.14100
H          5.34190        0.70680        2.63150
H          7.03710        1.27620        2.45110
H          6.17710       -1.27480        3.98070
H          6.51840        0.31290        4.76560
H          7.83160       -0.57680        3.89710
H          4.46760       -1.84340       -1.97040
H          5.25760       -3.26400       -3.80680
H          7.68360       -3.51550       -4.26140
H          9.32630       -2.37050       -2.81530
H          8.61120       -0.99160       -1.00110
