77

P          0.94120        0.00080       -0.08080
C          0.20600       -1.49900       -0.81230
C         -1.15700       -1.81530       -0.92450
C         -1.54540       -3.04540       -1.50300
C         -0.57930       -3.96420       -1.97230
C         -0.95210       -5.30410       -2.54510
C          0.77160       -3.62190       -1.88930
C          1.15010       -2.40280       -1.33800
C          0.52290       -0.39130        1.66780
C         -0.24740       -1.49260        2.11440
C         -0.71380       -1.54120        3.43600
C         -0.42160       -0.50840        4.33480
C         -0.98290       -0.49690        5.73180
C          0.38910        0.54770        3.91770
C          0.84990        0.60330        2.60000
C         -0.06030        1.33990       -0.80100
C         -0.50830        2.36270        0.05980
C         -1.25590        3.43740       -0.41850
C         -1.62580        3.49080       -1.76780
C         -2.48570        4.61580       -2.25790
C         -1.19590        2.46810       -2.63250
C         -0.40700        1.40530       -2.16200
Ag         3.40120        0.00080       -0.08080
Br         3.40120       -2.30810        1.09250
C          3.40120        1.91760       -1.05490
C          2.58060        2.95220       -0.95550
P          5.86120        0.00080       -0.08080
C          7.04350        0.68420        1.15370
C          6.35220       -1.69720        0.39540
C          6.92440       -2.53130       -0.57520
C          7.23080       -3.86870       -0.27750
C          6.96370       -4.38410        0.99320
C          6.44310       -3.55310        1.98330
C          6.16990       -2.21180        1.69990
C          6.53500        0.96890       -1.48490
C          7.42020        2.07430       -1.38470
C          8.00630        2.62480       -2.52700
C          7.72190        2.10050       -3.78550
C          6.84410        1.02430       -3.90680
C          6.25630        0.46260       -2.76880
H         -1.90900       -1.12790       -0.56110
H         -2.59320       -3.29300       -1.57230
H         -2.04830       -5.44790       -2.56040
H         -0.49700       -6.10940       -1.92700
H         -0.55610       -5.39090       -3.57790
H          1.53580       -4.30240       -2.25140
H          2.20450       -2.17300       -1.31150
H         -0.55740       -2.29640        1.47040
H         -1.34660       -2.36850        3.74430
H         -1.63380       -1.37860        5.92410
H         -1.60310        0.41610        5.87320
H         -0.16260       -0.48660        6.47710
H          0.62810        1.35780        4.59860
H          1.43620        1.45960        2.30310
H         -0.24990        2.38060        1.10250
H         -1.55360        4.22010        0.27030
H         -2.72600        5.33560       -1.44410
H         -3.44300        4.19660       -2.63130
H         -1.97960        5.17010       -3.07460
H         -1.47600        2.49970       -3.67680
H         -0.08250        0.63050       -2.84110
H          4.27020        2.11040       -1.66440
H          1.77000        2.96630       -0.27800
H          2.80010        3.85950       -1.51410
H          6.84880        0.27500        2.16340
H          6.86190        1.76730        1.29640
H          8.09730        0.46900        0.88300
H          7.11660       -2.16380       -1.57410
H          7.65370       -4.51240       -1.03710
H          7.16000       -5.42620        1.21230
H          6.22530       -3.95150        2.96680
H          5.73510       -1.60280        2.48170
H          7.72310        2.51600       -0.45370
H          8.70190        3.44930       -2.43100
H          8.19580        2.51970       -4.66410
H          6.63510        0.60960       -4.88430
H          5.60910       -0.39590       -2.88640
