83

P          1.05110        0.02600       -0.08190
C          0.35750        1.21140        1.33600
C         -1.03620        1.52570        1.66220
C         -2.22950        0.97510        0.95210
C         -1.37830        2.37010        2.77580
C         -0.41580        2.94390        3.59890
C         -0.70740        3.81110        4.80280
C          0.88990        2.70790        3.30000
C          1.29570        1.91370        2.22000
C          2.78660        1.95660        2.16340
C          0.40390        0.68950       -1.80340
C          0.11750        2.09340       -2.03240
C          0.41380        3.21020       -1.08160
C         -0.48790        2.55510       -3.21630
C         -0.82450        1.70560       -4.26750
C         -1.47930        2.20110       -5.53580
C         -0.51890        0.37930       -4.13500
C          0.07580       -0.16330       -2.97040
C          0.31260       -1.64530       -3.16370
C          0.60360       -1.69490        0.62270
C         -0.27420       -2.01530        1.73300
C         -0.63500       -1.16670        2.91610
C         -0.88810       -3.28530        1.80480
C         -0.62560       -4.28750        0.88740
C         -1.36320       -5.60530        0.94400
C          0.36960       -4.07390       -0.05330
C          1.01190       -2.82120       -0.16490
C          2.19640       -2.76510       -1.09330
Ag         3.51110        0.02600       -0.08190
Br         3.51110       -0.89580        2.33850
C          3.51110        0.79120       -2.09110
C          3.51010        2.12170       -2.24630
N          5.61110        0.02600       -0.08190
C          6.44240        0.63730       -1.03920
O          5.94600        1.41990       -2.01630
C          6.61810        2.23350       -2.91250
C          7.85230        0.52260       -0.97810
C          8.45550       -0.20280        0.02020
C          7.66610       -0.80110        0.97100
C          6.27770       -0.66760        0.91340
H         -1.96310        0.26640        0.14840
H         -2.83000        1.81610        0.54490
H         -2.89040        0.45450        1.68840
H         -2.42070        2.57420        3.01010
H         -1.77730        3.99110        4.98570
H         -0.19740        4.81060        4.69400
H         -0.26980        3.34410        5.71540
H          1.62840        3.18700        3.95030
H          3.17700        2.99090        2.16910
H          3.18420        1.49510        1.27390
H          3.16190        1.51680        3.12120
H          1.02310        2.91560       -0.22890
H         -0.53350        3.69400       -0.76180
H          1.02570        3.96330       -1.62660
H         -0.72470        3.60940       -3.34780
H         -1.68530        3.29190       -5.51220
H         -2.44940        1.67550       -5.69410
H         -0.83220        1.98980       -6.41540
H         -0.76550       -0.24490       -4.99180
H         -0.12340       -2.05660       -4.10620
H         -0.14610       -2.25590       -2.37360
H          1.37930       -1.81880       -3.39220
H          0.02690       -0.32130        3.09220
H         -0.41380       -1.76420        3.82520
H         -1.71480       -0.93220        2.94940
H         -1.60220       -3.49320        2.59340
H         -2.11500       -5.61990        1.76390
H         -0.65210       -6.44340        1.09950
H         -1.91770       -5.76450       -0.00920
H          0.64150       -4.89400       -0.71040
H          2.25080       -3.64230       -1.77890
H          3.10000       -2.80670       -0.45550
H          2.32480       -1.81310       -1.61160
H          2.92570        0.37200       -2.90280
H          3.75730        2.77420       -1.41800
H          3.23040        2.56170       -3.20210
H          5.87780        2.79070       -3.52380
H          7.24440        1.62510       -3.59450
H          7.23260        2.98240       -2.36750
H          8.49560        1.00120       -1.70090
H          9.53330       -0.29730        0.05270
H          8.12910       -1.38840        1.75280
H          5.80570       -1.22460        1.67290
