60

P          1.02190       -0.08580       -0.04650
C         -0.12270       -0.24770        1.40950
C         -1.44150        0.23830        1.44270
C         -2.19250        0.19800        2.63400
C         -1.63280       -0.29820        3.81700
F         -2.33350       -0.28240        4.97920
C         -0.35160       -0.82500        3.79550
C          0.37270       -0.83600        2.60490
C          0.61420        1.60690       -0.51720
C          1.00500        2.67820        0.29790
C          0.59680        3.98220       -0.00310
C         -0.19690        4.22480       -1.12670
F         -0.60910        5.48850       -1.40760
C         -0.58500        3.16480       -1.95040
C         -0.17150        1.85760       -1.65320
C          0.49430       -1.57970       -0.93870
C         -0.86590       -1.75360       -1.24450
C         -1.32230       -2.94620       -1.81830
C         -0.42320       -3.97790       -2.09540
F         -0.87430       -5.13990       -2.62490
C          0.93540       -3.81160       -1.80350
C          1.39670       -2.61430       -1.22720
Ag         3.48190       -0.08580       -0.04650
Br         3.48190       -0.06530       -2.63640
C          3.48190       -0.10280        2.10340
C          4.38460       -0.48840        3.01860
N          5.58190       -0.08580       -0.04650
C          6.28220       -0.53350       -1.13480
C          7.67630       -0.70290       -1.10150
C          8.43110       -0.35930        0.04470
N          9.86600       -0.59590        0.14860
C         10.63920       -1.28380       -0.88030
C         10.66110       -0.22760        1.31970
C          7.69890        0.22340        1.09300
C          6.31550        0.34390        1.02140
H         -1.89060        0.66830        0.56150
H         -3.20470        0.57780        2.65800
H          0.09210       -1.22180        4.70640
H          1.33180       -1.31230        2.65890
H          1.59410        2.49740        1.19010
H          0.88640        4.80370        0.63970
H         -1.21300        3.35430       -2.81250
H         -0.50950        1.04590       -2.28340
H         -1.59400       -0.98860       -1.02220
H         -2.37720       -3.07250       -2.03090
H          1.62600       -4.62100       -2.00190
H          2.44350       -2.51610       -0.97240
H          2.56460        0.22780        2.52850
H          5.32110       -0.96760        2.77280
H          4.14680       -0.41720        4.07440
H          5.79450       -0.89140       -2.01620
H          8.10760       -1.13720       -1.98420
H         10.07060       -1.61000       -1.75960
H         11.09540       -2.20150       -0.44820
H         11.45290       -0.62050       -1.24060
H         10.12270        0.28540        2.12590
H         11.48480        0.45070        1.01440
H         11.10320       -1.14150        1.77340
H          8.13530        0.58540        2.00440
H          5.85970        0.85960        1.83790
