64

P          1.07800        0.01700        0.06030
C         -0.07270        0.15430        1.48390
C          0.63590        1.65890       -0.61010
C          0.10490       -1.34910       -0.63950
C         -1.04620       -1.09090       -1.41290
C         -1.95790       -2.11810       -1.69300
C         -1.72920       -3.40950       -1.21500
C         -0.57400       -3.68430       -0.47960
C          0.33740       -2.65970       -0.18780
Ag         3.53800        0.01700        0.06030
Br         3.26830       -0.52650       -2.37090
C          3.84530        0.44950        2.11290
C          2.96880        0.93870        2.99310
C          5.68800        0.01700        0.06030
N          6.46280       -1.11100       -0.01300
C          6.01780       -2.52190        0.03220
C          5.08460       -2.75620        1.23590
C          5.32320       -2.95460       -1.24240
C          7.74610       -0.65890        0.02130
C          7.73710        0.70550        0.09460
C          8.91880        1.46240        0.09650
C         10.14130        0.78230        0.05230
C         10.16630       -0.62520        0.03260
C          8.96330       -1.36610        0.01540
N          6.46470        1.14390        0.18800
C          6.11050        2.56700        0.36970
C          6.48880        3.44400       -0.81650
C          6.67000        2.91170       -2.10690
C          7.12330        3.72320       -3.15280
C          7.40310        5.07290       -2.92600
C          7.19180        5.62460       -1.66110
C          6.72750        4.81960       -0.61330
H         -1.14110        0.14380        1.21930
H          0.09130        1.08510        2.04990
H          0.15970       -0.69720        2.16930
H         -0.47680        1.73940       -0.63120
H          0.99560        1.77890       -1.64870
H          1.00380        2.47460        0.04210
H         -1.28870       -0.09250       -1.74480
H         -2.86580       -1.90610       -2.24560
H         -2.45680       -4.19240       -1.39810
H         -0.40910       -4.68480       -0.09970
H          1.19200       -2.88020        0.43760
H          4.83970        0.26790        2.50220
H          1.99030        1.26600        2.73230
H          3.25950        1.09700        4.02840
H          6.89680       -3.18680        0.14530
H          4.17080       -2.12930        1.15290
H          5.59650       -2.51250        2.18990
H          4.75490       -3.81670        1.27420
H          4.38130       -2.43550       -1.31780
H          5.05430       -4.02810       -1.19610
H          5.96610       -2.76850       -2.12640
H          8.91060        2.54400        0.12580
H         11.06760        1.34610        0.04730
H         11.12390       -1.13130        0.02600
H          9.00930       -2.44450       -0.00280
H          6.74880        2.91420        1.21530
H          5.06710        2.73090        0.70050
H          6.47510        1.86690       -2.30530
H          7.27580        3.29890       -4.13640
H          7.78540        5.69090       -3.72940
H          7.40660        6.67290       -1.48910
H          6.59170        5.26570        0.36440
