47

P          0.96530        0.08820        0.03200
C         -0.37410        1.32640        0.07890
C          0.72470       -0.35730       -1.72130
C          0.27050       -1.01080        1.26840
C         -0.72690       -1.93720        0.92730
C         -1.37430       -2.66920        1.92960
C         -1.02870       -2.47920        3.27050
C         -0.03420       -1.55910        3.61170
C          0.60870       -0.82230        2.61500
Ag         3.42530        0.08820        0.03200
Br         3.42530       -2.50000        0.12990
C          3.42530        2.23660       -0.04930
C          2.61290        2.88480       -0.88010
N          5.52530        0.08820        0.03200
C          6.12380        1.38840       -0.29150
C          5.98250       -0.92260       -0.93750
C          6.08420       -0.39630        1.28500
C          5.24970       -0.78030        2.33590
C          5.80770       -1.17510        3.56480
C          7.18140       -1.19940        3.76500
C          8.02750       -0.82980        2.73030
C          7.49820       -0.43470        1.50210
H         -1.37830        0.89970       -0.08500
H         -0.17130        2.10550       -0.68760
H         -0.32910        1.84170        1.06430
H         -0.35950       -0.47570       -1.93490
H          1.24070       -1.30870       -1.94980
H          1.11840        0.43960       -2.38230
H         -1.03460       -2.06380       -0.10250
H         -2.16080       -3.36630        1.66890
H         -1.54090       -3.03380        4.04560
H          0.22260       -1.39870        4.65370
H          1.34790       -0.08130        2.89210
H          4.12510        2.85530        0.48520
H          1.95460        2.34400       -1.53930
H          2.66620        3.96550       -0.96690
H          5.70680        1.77590       -1.24600
H          7.21930        1.34160       -0.45070
H          6.00520        2.10740        0.53900
H          5.55990       -0.68520       -1.93820
H          5.73030       -1.96160       -0.69180
H          7.08830       -0.93050       -1.06260
H          4.18030       -0.74020        2.23060
H          5.14490       -1.46260        4.38480
H          7.60160       -1.50030        4.71910
H          9.09820       -0.83430        2.86990
H          8.20030       -0.13920        0.73510
