22

P          0.90400       -0.00970        0.02620
Cl        -1.12670       -0.20690        0.39610
Cl         0.84840        1.95880        0.68510
Cl         0.63380       -0.57570       -1.95600
Ag         3.36400       -0.00970        0.02620
Br         3.12320        1.49090       -1.98450
C          3.44490       -1.01940        1.82890
C          2.77430       -0.51070        2.86860
O          5.41400       -0.00970        0.02620
C          5.95290        1.09630       -0.61920
C          5.55000        2.31200        0.23650
C          7.47860        0.99200       -0.60590
H          4.06250       -1.89110        1.95970
H          2.16540        0.38210        2.75390
H          2.81670       -0.98040        3.85390
H          5.64940        1.18050       -1.67230
H          5.91610        2.18580        1.28870
H          4.44540        2.42340        0.29500
H          5.97290        3.25260       -0.16190
H          7.85400        0.86390        0.43280
H          7.93080        1.91360       -1.03420
H          7.79800        0.12200       -1.21260
