98

P          1.04120        0.06960        0.05870
C          0.30150        1.49760       -0.84430
C          1.11230        2.60470       -1.29710
C          2.56800        2.82150       -0.99360
C          0.53230        3.65760       -2.04040
C         -0.82340        3.66510       -2.32450
C         -1.63430        2.65000       -1.82840
C         -1.08960        1.58800       -1.08550
C          0.69890       -1.35160       -1.10650
C          1.36450       -2.61730       -0.94250
C          2.43030       -2.90490        0.07820
C          0.99160       -3.72990       -1.72460
C         -0.06460       -3.65730       -2.61870
C         -0.76550       -2.47230       -2.74910
C         -0.38980       -1.34280       -2.01950
C         -0.00220        0.23870        1.55250
C          0.07150        1.28540        2.52960
C          1.08690        2.39300        2.51140
C         -0.83120        1.29240        3.60700
C         -1.79690        0.29710        3.74770
C         -1.86690       -0.72010        2.80650
C         -0.98100       -0.75990        1.73510
Ag         3.50120        0.06960        0.05870
Br         3.50120       -0.05050       -2.52850
C          3.50120        0.16940        2.20640
C          2.66920       -0.42570        3.05920
P          5.96120        0.06960        0.05870
N          6.91850        1.58040        0.24370
C          6.43820        2.66910       -0.67080
C          7.05740        4.03730       -0.33170
C          6.65400        2.39870       -2.18010
C          8.36770        1.43920        0.35080
C          8.75400        0.00460        0.17290
C         10.29440       -0.11240        0.21560
C          8.11670       -0.84590        1.34180
N          6.62540       -0.70660        1.53990
C          6.00610       -2.06730        1.84590
C          6.07460       -3.11000        0.75640
C          6.60140       -2.80460        3.05980
N          6.77870       -0.46040       -1.51690
C          6.56780       -1.84810       -2.17370
C          5.16290       -2.41660       -2.46360
C          7.29570       -1.99440       -3.53830
C          8.26890       -0.42550       -1.25180
H          2.99320        2.08360       -0.30700
H          2.68760        3.80750       -0.48250
H          3.17480        2.86600       -1.92310
H          1.13930        4.48170       -2.40070
H         -1.24980        4.47900       -2.90170
H         -2.70120        2.68480       -2.02690
H         -1.76540        0.83580       -0.71320
H          2.75590       -2.02040        0.64240
H          3.30110       -3.38930       -0.39440
H          2.04170       -3.65660        0.79570
H          1.50470       -4.67930       -1.61640
H         -0.36010       -4.53060       -3.18790
H         -1.62490       -2.43220       -3.40770
H         -1.02170       -0.50950       -2.18330
H          1.81070        2.28980        1.68710
H          1.64950        2.36970        3.47030
H          0.56880        3.36510        2.42900
H         -0.79140        2.07830        4.35140
H         -2.48470        0.32870        4.57400
H         -2.62180       -1.49380        2.91990
H         -1.07590       -1.56740        1.02150
H          4.36450        0.66500        2.63890
H          1.86140       -1.06210        2.73540
H          2.86890       -0.33480        4.12500
H          5.34700        2.78630       -0.51530
H          8.15110        4.06720       -0.51520
H          6.85660        4.30350        0.72430
H          6.60770        4.82040       -0.98130
H          7.72570        2.25730       -2.42550
H          6.28410        3.25570       -2.78110
H          6.06530        1.53750       -2.53950
H          8.69440        1.81350        1.34750
H          8.90010        2.03550       -0.41830
H         10.69180        0.23540        1.19160
H         10.75420        0.50730       -0.58700
H         10.61550       -1.16370        0.05670
H          8.59130       -0.54310        2.30140
H          8.44040       -1.88190        1.16240
H          4.93400       -1.93160        2.04860
H          7.11670       -3.37630        0.42720
H          5.49980       -2.71070       -0.05680
H          5.57850       -4.06600        0.97030
H          7.66010       -3.10020        2.89250
H          6.04560       -3.76170        3.21040
H          6.50310       -2.21650        3.98730
H          7.04020       -2.61030       -1.54250
H          4.74950       -2.07800       -3.43480
H          4.44350       -2.22500       -1.67260
H          5.21560       -3.52370       -2.56790
H          6.84900       -1.32030       -4.29950
H          7.18670       -3.04210       -3.90930
H          8.38420       -1.80970       -3.49650
H          8.73900        0.21260       -2.03040
H          8.75940       -1.41680       -1.37720
