52

P          1.08040        0.03350        0.04910
C          0.41750       -1.53400       -0.59270
C         -0.93600       -1.88660       -0.69970
C         -1.28700       -3.15290       -1.20910
C         -0.29810       -4.06130       -1.61390
F         -0.63910       -5.28420       -2.09480
C          1.04460       -3.70700       -1.52770
C          1.39350       -2.45350       -1.03200
C          0.57830       -0.19650        1.80000
C         -0.11460       -1.30600        2.33860
C         -0.61300       -1.26190        3.65120
C         -0.43460       -0.12370        4.44040
F         -0.95600       -0.06720        5.69160
C          0.27170        0.96300        3.93450
C          0.78340        0.91930        2.63670
C          0.36350        1.37350       -0.95330
C          0.04350        2.59380       -0.32580
C         -0.52650        3.65140       -1.03510
C         -0.79930        3.50200       -2.38940
F         -1.36370        4.52840       -3.07920
C         -0.49310        2.29390       -3.03060
C          0.08380        1.23310       -2.31960
Ag         3.54040        0.03350        0.04910
Br         3.54040       -2.09470        1.52510
C          3.54040        1.80030       -1.17610
C          4.38520        2.12660       -2.16300
N          5.64040        0.03350        0.04910
C          6.38300        1.14890       -0.26370
C          7.77770        1.13190       -0.31840
C          8.45810       -0.04460       -0.05410
Cl        10.20800       -0.10110       -0.16130
C          7.73430       -1.17160        0.30520
C          6.33790       -1.10760        0.37510
H         -1.70800       -1.19980       -0.38670
H         -2.32540       -3.44010       -1.28860
H          1.81820       -4.40060       -1.84220
H          2.44510       -2.20530       -0.98950
H         -0.31770       -2.19560        1.76920
H         -1.16600       -2.10200        4.05090
H          0.40530        1.85320        4.53800
H          1.30560        1.79260        2.27780
H          0.23000        2.76040        0.72130
H         -0.75920        4.58080       -0.52840
H         -0.71700        2.18880       -4.08390
H          0.30600        0.30800       -2.83390
H          2.68400        2.45100       -1.08520
H          5.22120        1.49990       -2.44500
H          4.21610        3.03250       -2.73720
H          5.93880        2.10870       -0.41090
H          8.32070        2.03610       -0.56510
H          8.24620       -2.10270        0.51390
H          5.86020       -2.03080        0.60790
