30

P          1.05620       -0.00830        0.08230
Cl        -0.48330        0.94430        1.09320
Cl         1.13260        1.62110       -1.19900
Cl        -0.42980       -1.38150       -0.37360
Ag         3.51620       -0.00830        0.08230
Br         3.39930       -2.32210       -0.81230
C          3.55460        1.76600        1.17480
C          3.54420        3.00530        0.70750
N          5.61620       -0.00830        0.08230
C          6.45730        1.03160        0.24550
N          7.74650        0.63210        0.16220
C          8.93370        1.46360        0.11580
C          8.83100        2.81870       -0.27370
C          9.98340        3.61430       -0.40470
C         11.24030        3.06990       -0.13940
C         11.35120        1.73700        0.25580
C         10.20650        0.93390        0.36860
C          7.71950       -0.70990        0.04310
C          6.39850       -1.09630       -0.06580
H          3.60630        1.62140        2.25320
H          3.50530        3.20420       -0.35150
H          3.58280        3.82550        1.42230
H          6.13230        2.05360        0.33220
H          7.87910        3.26780       -0.51940
H          9.89830        4.64440       -0.72990
H         12.12860        3.67980       -0.24000
H         12.33090        1.32090        0.45860
H         10.33460       -0.09810        0.66150
H          8.57260       -1.36140       -0.02320
H          6.05670       -2.11200       -0.16820
