65

P          0.92820       -0.06960        0.00320
C         -0.02420        0.41700        1.47970
C         -1.41050        0.72100        1.49520
C         -2.04010        1.07070        2.69980
C         -1.30980        1.15680        3.89710
C         -1.97940        1.50390        5.20410
C          0.06010        0.91450        3.87830
C          0.69580        0.56500        2.68450
C          0.53350        1.27640       -1.13620
C          0.94610        2.58320       -0.83590
C          0.69940        3.63520       -1.73130
C          0.01870        3.38750       -2.92960
C         -0.23380        4.50770       -3.90210
C         -0.42570        2.08850       -3.22230
C         -0.16590        1.03290       -2.32830
C          0.28040       -1.78300        0.10450
C         -1.11410       -1.98650        0.02740
C         -1.68290       -3.23750        0.22470
C         -0.86880       -4.33810        0.48690
C         -1.47820       -5.66690        0.81110
C          0.52260       -4.18150        0.45380
C          1.09110       -2.91830        0.23920
Ag         3.38820       -0.06960        0.00320
Br         3.38820       -1.64630        2.05800
C          3.38820        1.23930       -1.70250
C          3.07990        0.76900       -2.91070
C          5.53820       -0.06960        0.00320
N          6.37760       -0.53250        1.01390
C          6.19610       -1.06700        2.36630
C          7.64230       -0.31310        0.62340
C          7.64000        0.26230       -0.58560
N          6.36940        0.44460       -0.98760
C          6.16860        1.05650       -2.30150
H         -2.00150        0.70900        0.60110
H         -3.10450        1.27730        2.70060
H         -3.07530        1.66290        5.06800
H         -1.53890        2.43420        5.61500
H         -1.83410        0.68070        5.93440
H          0.64870        0.98340        4.78910
H          1.75240        0.38340        2.71220
H          1.48590        2.78650        0.07910
H          1.04770        4.62510       -1.48510
H          0.19250        5.46760       -3.53760
H         -1.32450        4.64620       -4.05020
H          0.23850        4.27520       -4.88120
H         -0.95180        1.88360       -4.14630
H         -0.49630        0.03020       -2.57360
H         -1.79150       -1.18380       -0.17440
H         -2.76210       -3.33520        0.19760
H         -2.58970       -5.61660        0.81110
H         -1.15600       -5.96070        1.83390
H         -1.15040       -6.43340        0.08280
H          1.16800       -5.03530        0.61570
H          2.15670       -2.84690        0.20320
H          3.76740        2.24740       -1.60050
H          2.84660       -0.28270       -3.03490
H          3.17120        1.41000       -3.78250
H          5.55990       -0.37760        2.96480
H          7.15590       -1.11210        2.92660
H          5.86930       -2.12320        2.33380
H          8.53150       -0.54940        1.20230
H          8.52820        0.55110       -1.13180
H          7.14120        1.28330       -2.79240
H          5.70870        2.05100       -2.21240
H          5.64560        0.35450       -2.97430
