79

P          0.93240        0.06110       -0.04130
C         -0.08820        1.59100       -0.00720
C          0.23150        2.67350        0.89350
C          1.30530        2.63320        1.97090
C         -0.39220        3.92230        0.71590
C         -1.33830        4.11610       -0.28550
C         -1.68430        3.06540       -1.12740
C         -1.05640        1.82590       -1.00480
C          0.61220       -0.64970       -1.74500
C          1.07070       -0.07690       -2.98200
C          2.02020        1.06300       -3.08370
C          0.65620       -0.60650       -4.21800
C         -0.17380       -1.71110       -4.26920
C         -0.59680       -2.31160       -3.08600
C         -0.20700       -1.79080       -1.84320
C          0.38670       -0.86170        1.45130
C         -0.97790       -1.21990        1.71680
C         -2.14750       -0.91510        0.81830
C         -1.29850       -1.91760        2.89620
C         -0.31030       -2.27080        3.80530
C          1.01510       -1.92390        3.55980
C          1.35970       -1.22080        2.40080
Ag         3.39240        0.06110       -0.04130
Br         2.89940       -2.42420       -0.15800
C          3.46890        2.15890       -0.12570
C          2.63610        3.08010       -0.62990
C          5.54240        0.06110       -0.04130
N          6.29180       -0.92210        0.39210
C          5.84080       -2.09490        1.14820
C          6.32280       -3.38810        0.47060
C          6.29010       -2.04740        2.61170
C          7.69720       -0.63720        0.28910
C          7.76180        0.57030       -0.60010
N          6.43590        1.12980       -0.52140
C          6.21140        2.42740       -1.19920
C          6.68160        3.54230       -0.23920
C          6.87690        2.60580       -2.57220
H          1.84320        1.66880        2.02400
H          0.87720        2.86560        2.96230
H          2.06810        3.42800        1.79170
H         -0.10900        4.77020        1.33170
H         -1.78820        5.09110       -0.42340
H         -2.41560        3.22240       -1.90910
H         -1.31890        1.06730       -1.72450
H          2.61040        1.10690       -2.17510
H          1.50110        2.00480       -3.37050
H          2.78940        0.84280       -3.85480
H          0.98930       -0.15870       -5.15580
H         -0.49030       -2.10370       -5.22850
H         -1.23540       -3.18020       -3.13610
H         -0.57310       -2.27860       -0.95110
H         -1.87020       -0.42180       -0.11580
H         -2.87310       -0.26580        1.35490
H         -2.66020       -1.86110        0.53940
H         -2.32710       -2.19590        3.11100
H         -0.57730       -2.81320        4.70300
H          1.77730       -2.20070        4.27550
H          2.39830       -0.95720        2.24840
H          4.35430        2.55290        0.29850
H          1.72830        2.85290       -1.15640
H          2.91470        4.12840       -0.58280
H          4.77950       -2.07330        1.27110
H          7.43300       -3.45310        0.49790
H          5.99350       -3.41650       -0.58830
H          5.92180       -4.27730        0.99890
H          7.39180       -2.05910        2.72090
H          5.87620       -2.92750        3.15440
H          5.87920       -1.13460        3.09820
H          8.31300       -1.45530       -0.13610
H          8.06290       -0.35900        1.29990
H          7.90360        0.23870       -1.65660
H          8.57890        1.25890       -0.30790
H          5.19070        2.54990       -1.53970
H          7.78250        3.49970       -0.10380
H          6.24440        3.41590        0.77480
H          6.39960        4.54650       -0.61470
H          7.98150        2.56610       -2.52400
H          6.59270        3.61130       -2.96900
H          6.49010        1.85320       -3.29180
