67

P          1.04800        0.06860        0.05470
C          0.08060       -0.27300        1.54160
C         -1.30960       -0.11070        1.59320
C         -1.98930       -0.29710        2.79870
C         -1.28680       -0.64300        3.97200
O         -1.91610       -0.81830        5.16580
C         -3.26730       -0.63450        5.38070
C          0.09900       -0.80000        3.91720
C          0.77840       -0.60650        2.71270
C          0.41830        1.75850       -0.11010
C          0.74720        2.70950        0.86940
C          0.21040        3.99580        0.82710
C         -0.68370        4.35330       -0.20200
O         -1.26580        5.57960       -0.25870
C         -1.14400        6.57250        0.70060
C         -1.00090        3.41040       -1.19070
C         -0.45500        2.11830       -1.14730
C          0.57090       -1.43930       -0.86490
C         -0.35180       -2.39900       -0.38910
C         -0.74020       -3.47610       -1.17740
C         -0.21270       -3.64670       -2.46520
O         -0.53450       -4.71780       -3.23730
C         -1.25690       -5.81330       -2.80180
C          0.68580       -2.69210       -2.95880
C          1.06840       -1.59660       -2.16970
Ag         3.50800        0.06860        0.05470
Br         3.50800       -2.35490        0.96820
C          3.50800        2.08040       -0.70370
C          4.42960        3.02590       -0.95620
N          5.60800        0.06860        0.05470
C          6.34870       -0.53780        1.05310
C          5.74420       -0.97440        2.35670
C          7.75280       -0.52250        1.02060
C          8.41400        0.11090       -0.01990
C          7.67450        0.72980       -1.01480
C          6.28010        0.70200       -0.95440
H         -1.85890        0.17930        0.70730
H         -3.06100       -0.15230        2.80570
H         -3.50880       -0.85800        6.43850
H         -3.85310       -1.31970        4.72920
H         -3.54830        0.41860        5.16530
H          0.65630       -1.05440        4.81050
H          1.85640       -0.70190        2.70070
H          1.41360        2.44630        1.68040
H          0.48200        4.69550        1.60020
H         -1.77090        7.44290        0.41810
H         -0.08770        6.90540        0.78220
H         -1.49830        6.19620        1.68560
H         -1.68800        3.67440       -1.98600
H         -0.73430        1.39740       -1.90420
H         -0.81730       -2.34810        0.57630
H         -1.46120       -4.17150       -0.76880
H         -1.30880       -6.56980       -3.60970
H         -2.29050       -5.51990       -2.51830
H         -0.74570       -6.27310       -1.92700
H          1.09160       -2.80030       -3.95720
H          1.75450       -0.86700       -2.58220
H          2.53700        2.45680       -0.92860
H          5.48660        2.96810       -0.77260
H          4.09030        3.98170       -1.35190
H          4.69410       -0.63540        2.44920
H          6.24440       -0.42600        3.18500
H          5.88050       -2.06090        2.53240
H          8.33210       -0.94800        1.83220
H          9.49570        0.14270       -0.04030
H          8.17640        1.22450       -1.83620
H          5.74500        1.12360       -1.78680
