23

P          0.94370        0.03170        0.07630
Cl        -0.39790       -0.18990        1.64160
Cl         0.90560        2.08540        0.38180
Cl        -0.79370       -0.45570       -0.94500
Ag         3.40370        0.03170        0.07630
Br         3.52200        1.56170        2.05710
C          3.27130       -1.43740       -1.37320
C          3.19580       -2.70780       -0.97920
N          5.50370        0.03170        0.07630
C          5.64650        1.34460       -0.56490
N          6.15360        0.10490        1.28450
C          7.12200       -0.74440        1.31200
C          7.18690       -1.44910        0.11190
C          6.15580       -0.97340       -0.66440
H          3.24920       -1.18160       -2.42680
H          3.21230       -2.94620        0.08030
H          3.11490       -3.51160       -1.70670
H          4.65040        1.78530       -0.76280
H          6.18250        1.28650       -1.54180
H          6.21970        2.07450        0.05620
H          7.78830       -0.86580        2.15030
H          7.88670       -2.22900       -0.16060
H          5.89890       -1.31020       -1.66230
