52

P          1.08650       -0.00530        0.04980
C          0.14190        1.53330        0.20030
C         -0.41480        1.94940        1.41960
C         -0.91180        3.25620        1.55530
C         -0.84590        4.15640        0.48380
Cl        -1.41850        5.80510        0.66610
C         -0.28490        3.75360       -0.72610
C          0.21580        2.46070       -0.86190
C          0.85050       -0.36800       -1.71200
C          1.94400       -0.48150       -2.57880
C          1.74420       -0.73800       -3.94040
C          0.44910       -0.87500       -4.44810
Cl         0.19790       -1.18610       -6.15730
C         -0.64680       -0.75540       -3.59490
C         -0.44880       -0.50190       -2.23370
C          0.41540       -1.24780        1.17310
C         -0.96460       -1.51990        1.14720
C         -1.52010       -2.46620        2.00980
C         -0.70710       -3.14980        2.91210
Cl        -1.41000       -4.33970        3.99310
C          0.66720       -2.87990        2.95370
C          1.22610       -1.92830        2.08970
Ag         3.54650       -0.00530        0.04980
Br         3.54650       -2.56300       -0.35780
C          3.54650        2.11790        0.38820
C          4.51440        3.03850        0.26040
N          5.64650       -0.00530        0.04980
C          6.34340       -0.92210       -0.71450
F          5.73180       -1.73810       -1.59430
C          7.74000       -0.94570       -0.75380
C          8.46710       -0.06140        0.02240
F          9.82290       -0.07980       -0.00280
C          7.79030        0.81850        0.84760
C          6.39080        0.83520        0.85330
F          5.81660        1.58240        1.82420
H         -0.41720        1.29200        2.27840
H         -1.31440        3.58500        2.50460
H         -0.19870        4.44870       -1.55310
H          0.70250        2.20790       -1.79460
H          2.95320       -0.36480       -2.21090
H          2.59830       -0.82200       -4.60070
H         -1.65630       -0.85020       -3.97990
H         -1.31850       -0.39920       -1.60460
H         -1.62170       -0.99680        0.47410
H         -2.58580       -2.66110        1.97660
H          1.29770       -3.40580        3.65840
H          2.28670       -1.72450        2.14100
H          2.57230        2.54920        0.56820
H          5.50850        2.82310       -0.09500
H          4.28790        4.08810        0.40720
H          8.25520       -1.63940       -1.40570
H          8.34420        1.47810        1.50240
