87

P          0.93340       -0.04250        0.06130
C          0.16400        0.32250       -1.53870
C         -1.20870        0.25490       -1.81970
C         -1.66440        0.49340       -3.13520
C         -3.11500        0.41920       -3.48850
C         -0.74540        0.79670       -4.15050
C          0.61560        0.87820       -3.86610
C          1.06090        0.65520       -2.57140
C          0.53580       -1.81970       -0.02430
C          0.23760       -2.54490       -1.19970
C         -0.15740       -3.89080       -1.12720
C         -0.49330       -4.65550       -2.37130
C         -0.25840       -4.52000        0.11940
C          0.03390       -3.81470        1.28450
C          0.42750       -2.47900        1.21190
C          0.25910        1.15170        1.25750
C          0.55110        0.98300        2.62690
C          0.10300        1.91070        3.58120
C          0.47850        1.77270        5.03010
C         -0.68230        2.99370        3.16900
C         -1.00440        3.15350        1.81910
C         -0.53240        2.24430        0.86520
Ag         3.39340       -0.04250        0.06130
Br         3.39340       -1.75920       -1.87800
C          3.39340        1.38260        1.67120
C          4.18810        1.55840        2.72900
P          5.85340       -0.04250        0.06130
C          6.53870        0.11960       -1.66130
C          6.27630        1.34560       -2.33330
C          6.66830        1.60160       -3.64240
C          7.33420        0.62120       -4.35080
C          7.59890       -0.61040       -3.74510
C          7.21080       -0.86970       -2.41770
C          6.34310        1.52270        0.88720
C          7.29070        1.55640        1.92890
C          7.58080        2.76930        2.58230
C          6.94580        3.95530        2.19830
C          6.01310        3.93760        1.16880
C          5.71070        2.74030        0.52860
C          6.19460       -1.80360        0.42920
C          7.50540       -2.35290        0.60070
C          8.78590       -1.58950        0.39000
C          7.64640       -3.68430        1.04020
C          6.53070       -4.47070        1.31740
C          5.25580       -3.93900        1.16580
C          5.09210       -2.62040        0.73950
H         -1.90720        0.00110       -1.03230
H         -3.74000        0.20250       -2.59980
H         -3.26750       -0.38310       -4.24250
H         -3.43630        1.38840       -3.92850
H         -1.07700        0.96900       -5.17080
H          1.32420        1.11510       -4.64940
H          2.12300        0.71820       -2.37550
H          0.29620       -2.08460       -2.17400
H         -0.37790       -4.02790       -3.28030
H         -1.54730       -5.00130       -2.31780
H          0.17780       -5.53490       -2.45980
H         -0.57300       -5.55390        0.18900
H         -0.05960       -4.29830        2.24880
H          0.62080       -1.95230        2.13610
H          1.16530        0.15120        2.94640
H          1.11420        0.87900        5.20710
H         -0.43250        1.69130        5.65840
H          1.05500        2.66930        5.34650
H         -1.03730        3.71740        3.89300
H         -1.61070        3.99530        1.51080
H         -0.78320        2.41110       -0.17110
H          2.55830        2.05910        1.64240
H          5.02800        0.92420        2.95060
H          3.95880        2.37070        3.41820
H          5.74930        2.15120       -1.89750
H          6.44340        2.56190       -4.09570
H          7.62360        0.82470       -5.37560
H          8.10040       -1.36830       -4.32620
H          7.41320       -1.84110       -2.00420
H          7.77950        0.65050        2.25700
H          8.28920        2.79670        3.39930
H          7.15690        4.88850        2.70580
H          5.49680        4.84540        0.87930
H          4.92070        2.77910       -0.19960
H          8.62970       -0.55770        0.03130
H          9.41440       -2.12990       -0.35210
H          9.34810       -1.54260        1.34810
H          8.63110       -4.11330        1.19250
H          6.65620       -5.48690        1.67130
H          4.38940       -4.54240        1.40530
H          4.08770       -2.23250        0.69230
