54

P          1.05490       -0.00110       -0.08360
Cl        -0.53310        1.32730        0.03340
Cl         0.89550       -0.01920       -2.16130
Cl        -0.23780       -1.40020        0.74550
Ag         3.51490       -0.00110       -0.08360
Br         3.13280        2.02890       -1.49820
C          3.43150       -1.71200        1.10890
C          2.62630       -1.76940        2.17950
P          5.97490       -0.00110       -0.08360
C          6.64170        0.00220       -1.91280
C          6.22940        1.19780       -2.79910
C          8.14980       -0.16990       -2.20510
C          5.94140       -1.22260       -2.56360
C          6.31650        1.81600        0.54630
C          5.72750        1.83300        1.98010
C          7.81680        2.14550        0.69140
C          5.70360        3.07470       -0.12490
C          6.50520       -1.57710        0.80770
C          7.98640       -2.01540        1.22870
C          8.72380       -0.98160        2.08520
C          7.85350       -3.30290        2.08560
C          8.91980       -2.36050        0.05760
H          4.00650       -2.59100        0.86750
H          2.00530       -0.92490        2.45320
H          2.57190       -2.67110        2.77700
H          6.81060        2.09680       -2.56750
H          5.14930        1.34830       -2.82140
H          6.46750        1.00200       -3.86930
H          8.80750        0.52770       -1.65150
H          8.37610       -0.00400       -3.27800
H          8.45150       -1.21840       -2.13710
H          4.83740       -1.13510       -2.47530
H          6.24640       -2.16710       -2.05500
H          6.19540       -1.33380       -3.63630
H          6.17200        1.03320        2.60390
H          4.62800        1.67030        1.94600
H          5.91580        2.80540        2.48930
H          8.26380        1.62730        1.54390
H          7.99240        3.19660        1.00630
H          8.38400        2.01680       -0.24150
H          4.63680        3.18110        0.08480
H          5.94920        3.25820       -1.17140
H          6.06930        3.99650        0.38170
H          6.08880       -2.42400        0.22690
H          5.96140       -1.50240        1.77140
H          8.10870       -0.61820        2.93170
H          9.05840       -0.16730        1.43070
H          9.68160       -1.38640        2.48360
H          7.26750       -3.10290        2.99920
H          8.86170       -3.66130        2.40260
H          7.37530       -4.10810        1.49810
H          9.32970       -1.44720       -0.36990
H          8.41660       -3.02730       -0.67490
H          9.84540       -2.87860        0.41340
