129

P          1.08070        0.04650       -0.03640
C         -0.26270       -1.25220        0.92330
C         -1.75020       -1.27790        1.04940
C         -2.60670       -0.21170        0.57110
C         -2.50790       -2.34940        1.72850
C         -1.90120       -3.42460        2.33760
C         -2.44990       -4.62370        3.13060
C         -0.57380       -3.43780        2.28200
C          0.17300       -2.47490        1.67100
C          1.45900       -2.82540        1.97410
C          0.57880        1.76440        0.73720
C          1.29540        2.19640        1.90710
C          2.50680        1.56050        2.42140
C          0.94250        3.32000        2.66840
C         -0.11120        4.12360        2.32360
C         -0.45500        5.33180        3.16130
C         -0.81800        3.81920        1.17890
C         -0.52100        2.68760        0.35820
C         -1.43790        2.69530       -0.87500
C          0.64810       -0.39910       -1.87310
C          0.52290        0.55380       -2.96810
C          0.80270        2.01390       -2.95360
C          0.13620        0.15760       -4.26470
C         -0.13950       -1.14850       -4.58370
C         -0.59260       -1.52070       -5.97250
C          0.03820       -2.10830       -3.61340
C          0.45000       -1.78030       -2.29840
C          0.69690       -2.99270       -1.45470
Ag         3.54070        0.04650       -0.03640
Br         3.54070        1.94010       -1.80340
C          3.54070       -1.52540        1.43040
C          4.42060       -2.52450        1.51430
P          6.00070        0.04650       -0.03640
C          7.17570       -1.44290        0.44260
C          7.35820       -2.48940       -0.56640
C          6.63510       -2.59300       -1.88510
C          8.26160       -3.56180       -0.38600
C          8.97010       -3.73220        0.78250
C          9.92870       -4.87940        0.98250
C          8.75500       -2.84880        1.80870
C          7.88960       -1.73410        1.68640
C          7.74910       -1.05030        2.99570
C          6.57070        0.39800       -1.94800
C          5.78820        0.50720       -3.23620
C          4.38540        0.03060       -3.64750
C          6.36830        1.09050       -4.39700
C          7.69100        1.42700       -4.48350
C          8.26290        2.08690       -5.72160
C          8.50730        1.04770       -3.44410
C          7.99580        0.50770       -2.24040
C          9.09200       -0.03710       -1.35280
C          6.39160        1.45040        1.24970
C          5.97080        1.50260        2.65410
C          5.22980        0.47550        3.43970
C          6.26360        2.61310        3.47380
C          6.97710        3.69960        3.00650
C          7.27330        4.88740        3.86170
C          7.41970        3.68300        1.71410
C          7.16490        2.61550        0.84140
C          7.81200        2.83540       -0.48540
H         -1.92480        0.52660        0.24320
H         -3.18050        0.20090        1.42780
H         -3.29860       -0.58410       -0.21300
H         -3.59100       -2.30240        1.78940
H         -3.53210       -4.70110        3.20950
H         -2.00000       -4.61140        4.16060
H         -2.03770       -5.57590        2.68400
H         -0.13180       -4.27900        2.80470
H          1.81440       -3.69400        2.57190
H          1.45960       -2.07150        2.80080
H          1.87940       -3.00150        0.99100
H          2.95370        0.89540        1.71350
H          2.26750        1.06600        3.38270
H          3.28430        2.35610        2.55350
H          1.52400        3.58730        3.54770
H          0.21580        5.42960        4.04430
H         -1.49680        5.25350        3.53770
H         -0.35540        6.25890        2.55940
H         -1.61690        4.50950        0.92800
H         -2.24780        3.45400       -0.79890
H         -1.96620        1.80260       -1.22560
H         -0.91910        3.15570       -1.69600
H          1.03100        2.38540       -1.94560
H         -0.02290        2.58240       -3.42640
H          1.65410        2.20650       -3.64350
H          0.03960        0.89670       -5.05480
H         -0.65170       -0.63190       -6.63840
H         -1.60360       -1.98060       -5.93430
H          0.11980       -2.24200       -6.42250
H         -0.14590       -3.13850       -3.90180
H          0.70780       -3.93180       -2.05210
H         -0.09780       -3.15860       -0.71440
H          1.72660       -2.91860       -1.06980
H          2.99720       -1.20140        2.25730
H          5.04790       -2.75850        0.67360
H          4.46840       -3.14460        2.40210
H          5.78540       -1.91100       -1.99680
H          6.18040       -3.60500       -1.96620
H          7.35760       -2.48100       -2.72320
H          8.40040       -4.29640       -1.17220
H         10.02690       -5.50470        0.07170
H          9.58520       -5.52570        1.81950
H         10.93400       -4.47900        1.23910
H          9.27510       -3.06290        2.73800
H          8.40570       -1.43730        3.80630
H          6.78200       -1.40340        3.36850
H          7.96600        0.02460        2.93500
H          4.46510       -0.67070       -4.50770
H          3.80420       -0.48730       -2.86550
H          3.79150        0.86850       -4.10550
H          5.76590        1.27200       -5.29080
H          7.47260        2.35570       -6.45990
H          8.99260        1.41870       -6.22010
H          8.77610        3.03140       -5.43730
H          9.56810        1.16890       -3.59690
H         10.09430        0.34920       -1.62650
H          9.17710       -1.11460       -1.59940
H          8.95140        0.10960       -0.27530
H          5.03060       -0.38390        2.83240
H          4.32420        0.86740        3.90410
H          5.82260        0.18450        4.33280
H          5.93280        2.63810        4.50820
H          6.85140        4.78640        4.88740
H          6.83490        5.79710        3.40450
H          8.37320        5.03060        3.94700
H          8.00290        4.54320        1.38900
H          8.31860        3.81700       -0.60520
H          7.08680        2.77390       -1.30970
H          8.68090        2.18130       -0.52690
