123

P          1.06490        0.05830        0.04890
C          0.55620       -1.49090        0.94330
C         -0.72300       -1.71930        1.55750
C         -1.83730       -0.71100        1.58820
C         -1.04040       -2.99670        2.07520
C         -0.13940       -4.06170        2.00070
C         -0.49400       -5.45120        2.46210
C          1.10480       -3.85350        1.43770
C          1.47780       -2.61100        0.90810
C          2.85110       -2.60530        0.24970
C          0.59010        1.25100        1.59430
C          0.53130        1.08220        3.07130
C          0.91780       -0.07300        3.96290
C          0.00400        2.10990        3.92040
C         -0.52350        3.29170        3.43400
C         -1.17040        4.34590        4.29110
C         -0.45860        3.49540        2.09520
C          0.08460        2.55570        1.22170
C          0.12670        3.04160       -0.13120
C          0.19870        0.17590       -1.73630
C         -0.72060       -0.86610       -2.24030
C         -1.26170       -2.11530       -1.59190
C         -1.23610       -0.83960       -3.55300
C         -0.92900        0.13930       -4.45320
C         -1.40230        0.07480       -5.88020
C         -0.14100        1.17610       -4.05080
C          0.43070        1.27070       -2.75900
C          1.32290        2.54540       -2.74260
Ag         3.52490        0.05830        0.04890
Br         3.52490       -0.29290        2.61500
C          3.52490        0.34970       -2.08120
C          2.75390       -0.16590       -3.03700
P          5.98490        0.05830        0.04890
C          6.91470       -0.16170       -1.68100
C          6.71300       -1.58900       -2.26790
C          5.43530       -1.71830       -3.07590
C          5.48780       -0.75510       -4.30920
C          5.86230        0.72600       -4.02740
C          6.93140        0.84290       -2.91460
C          6.60310        1.85690        0.29840
C          6.15530        2.55970        1.61180
C          6.98860        2.16860        2.85820
C          8.47090        2.52380        2.65960
C          9.00250        1.78570        1.44460
C          8.16060        2.13030        0.18640
C          6.64770       -1.52260        1.33470
C          7.97280       -2.11240        1.00390
C          8.95950       -1.57770        0.05030
C          8.55720       -3.26480        1.57780
C          7.96470       -3.95870        2.57890
C          8.56990       -5.17530        3.26400
C          6.83520       -3.47970        3.05980
C          6.11350       -2.34950        2.57010
C          4.94620       -2.32500        3.56370
H         -1.59800        0.23690        1.08440
H         -2.13260       -0.51230        2.63970
H         -2.70790       -1.13020        1.04130
H         -2.02380       -3.17840        2.49200
H         -1.53380       -5.51260        2.84190
H          0.20590       -5.78410        3.25510
H         -0.40460       -6.15560        1.60210
H          1.78610       -4.69970        1.38630
H          3.31150       -3.61770        0.21940
H          3.59850       -2.03590        0.79890
H          2.80040       -2.23750       -0.78830
H          1.19650       -1.00160        3.45540
H          0.09250       -0.32770        4.66060
H          1.75290        0.28370        4.62240
H         -0.04210        1.99390        4.99580
H         -1.16370        4.07910        5.36350
H         -2.23220        4.47200        3.97180
H         -0.66310        5.33010        4.15750
H         -0.84780        4.45510        1.72290
H         -0.26800        4.06870       -0.30510
H         -0.49130        2.38130       -0.74590
H          1.22280        3.08200       -0.30810
H         -0.94510       -2.37700       -0.62960
H         -0.98300       -3.00640       -2.19190
H         -2.37650       -2.05580       -1.55590
H         -1.88330       -1.63740       -3.91140
H         -1.99920       -0.83910       -6.08300
H         -0.50760        0.04340       -6.54160
H         -2.00570        0.96910       -6.13660
H          0.04160        1.92140       -4.81780
H          1.42410        3.01880       -3.74510
H          2.36720        2.41300       -2.45820
H          0.88970        3.44650       -2.30300
H          4.27410        1.06250       -2.22100
H          2.02850       -0.93340       -2.82930
H          2.85390        0.18110       -4.05790
H          7.95250       -0.09330       -1.49020
H          6.72660       -2.35730       -1.47020
H          7.53850       -1.82190       -2.97620
H          4.62650       -1.65050       -2.34640
H          5.31170       -2.74960       -3.46100
H          4.56680       -0.81200       -4.92660
H          6.29250       -1.15170       -4.95020
H          5.02330        1.42650       -3.92160
H          6.23430        1.18660       -4.96780
H          7.13460        1.89710       -2.63450
H          7.83380        0.53560       -3.49870
H          6.12370        2.40010       -0.54040
H          5.07400        2.40990        1.78890
H          6.31840        3.65570        1.47780
H          6.88220        1.08340        3.06470
H          6.62750        2.73700        3.74190
H          9.06800        2.24020        3.55760
H          8.59480        3.62060        2.51280
H          8.99010        0.71690        1.70870
H         10.06580        2.07850        1.27660
H          8.63220        1.69200       -0.70550
H          8.29490        3.22560        0.04100
H          8.93530       -0.50720        0.09730
H          8.96100       -2.14430       -0.89790
H          9.98480       -1.65750        0.46780
H          9.51400       -3.65870        1.27820
H          9.52810       -5.49390        2.82220
H          7.85060       -6.03130        3.21430
H          8.73880       -4.97570        4.35880
H          6.47990       -4.07650        3.91520
H          4.87970       -3.03290        4.42290
H          3.99630       -2.65780        3.09000
H          5.02290       -1.41870        4.21090
