75

P          1.00230        0.06590        0.07510
C          0.10180       -0.70540        1.45970
C         -0.20440       -2.07660        1.38520
C         -0.70910       -2.76400        2.47520
C         -0.90130       -2.11330        3.70180
O         -1.37070       -2.77580        4.79140
C         -1.73250       -4.11070        4.80080
C         -0.57260       -0.75290        3.80610
C         -0.06390       -0.05440        2.69910
C          0.56700        1.80760        0.27710
C          1.54470        2.80290        0.29300
C          1.19610        4.13740        0.52990
C         -0.14140        4.48880        0.76330
O         -0.52530        5.76410        1.02960
C          0.33770        6.82260        1.22800
C         -1.12970        3.50040        0.71550
C         -0.77620        2.17350        0.47170
C          0.34050       -0.94540       -1.27200
C         -1.05440       -0.97240       -1.44200
C         -1.65590       -1.90150       -2.28330
C         -0.87150       -2.83290       -2.98240
O         -1.42720       -3.81980       -3.73580
C         -2.77260       -4.14610       -3.75360
C          0.52830       -2.77140       -2.85930
C          1.13640       -1.83340       -2.00530
Ag         3.46230        0.06590        0.07510
Br         3.46230        1.15740       -2.27370
C          3.46230       -0.84010        2.02490
C          4.46580       -1.28740        2.78480
C          5.61230        0.06590        0.07510
N          6.37650       -0.33530       -0.96180
C          5.94450       -0.99500       -2.18780
C          7.65670       -0.19020       -0.57200
C          7.66590        0.33570        0.70070
N          6.38810        0.50690        1.10290
C          5.98040        1.30090        2.25090
C          4.72770        1.94420        2.24860
C          4.34950        2.81280        3.27450
C          5.22160        3.05090        4.33500
C          6.47100        2.42700        4.36080
C          6.85610        1.56560        3.32410
H         -0.02430       -2.65770        0.49470
H         -0.91660       -3.81740        2.35180
H         -2.08120       -4.39760        5.81170
H         -0.86300       -4.75110        4.53190
H         -2.55800       -4.28320        4.07610
H         -0.68360       -0.24200        4.75480
H          0.23240        0.97840        2.82920
H          2.57030        2.55590        0.12040
H          1.98520        4.87270        0.54390
H         -0.24620        7.73360        1.46420
H          0.93520        7.00720        0.31220
H          1.01420        6.60500        2.08530
H         -2.17010        3.75710        0.88480
H         -1.56410        1.42810        0.48040
H         -1.69650       -0.31930       -0.87250
H         -2.73640       -1.91250       -2.34480
H         -2.93220       -5.02740       -4.40760
H         -3.37880       -3.30030       -4.14040
H         -3.11510       -4.41340       -2.72820
H          1.14290       -3.49140       -3.38400
H          2.20870       -1.85330       -1.86510
H          2.48250       -0.97320        2.45370
H          5.50250       -1.26010        2.50280
H          4.22640       -1.71650        3.75530
H          4.84860       -1.15570       -2.18640
H          6.39470       -2.01320       -2.21850
H          6.26800       -0.42670       -3.08010
H          8.52190       -0.45050       -1.16770
H          8.54940        0.62880        1.25090
H          4.05530        1.80000        1.42940
H          3.38730        3.31100        3.23860
H          4.93380        3.73340        5.12640
H          7.14820        2.62370        5.18140
H          7.83660        1.11590        3.36330
