68

P          1.00970        0.03750       -0.09220
C         -0.02360        0.01680       -1.59980
C         -0.34680        1.19950       -2.29310
C         -1.14020        1.14790       -3.45160
C         -1.59640       -0.08770       -3.94270
C         -2.53860       -0.18530       -5.10300
C         -1.18210       -1.26440       -3.32250
C         -0.39530       -1.21440       -2.18090
C          0.47720       -1.59590        0.59810
C          1.36310       -2.65840        0.84910
C          0.87450       -3.91170        1.28130
C         -0.50110       -4.12360        1.48400
C         -1.03420       -5.45320        1.95720
C         -1.38670       -3.07560        1.23360
C         -0.90650       -1.84110        0.79030
C          0.37450        1.51710        0.77930
C         -1.02000        1.68800        0.91810
C         -1.55970        2.79730        1.56850
C         -0.71930        3.77990        2.09610
C         -1.30030        4.96170        2.82500
C          0.67070        3.64390        1.93860
C          1.21550        2.52260        1.28180
Ag         3.46970        0.03750       -0.09220
Br         3.42090        0.07530        2.39240
C          3.37710        0.05010       -2.22580
C          4.31760        0.46040       -3.12610
P          5.92970        0.03750       -0.09220
O          6.87440        0.56270        1.25800
C          8.26010        0.50150        1.09610
C          8.63450       -0.16610       -0.20450
C         10.16770       -0.22530       -0.30740
C          7.90250       -1.56690       -0.20410
O          6.49920       -1.54360        0.17140
O          6.68240        0.88370       -1.35570
C          8.08220        0.71710       -1.34840
H         -0.00380        2.16170       -1.93410
H         -1.41380        2.06860       -3.95200
H         -2.82210        0.81440       -5.49000
H         -3.46470       -0.68800       -4.74350
H         -2.10130       -0.79410       -5.92090
H         -1.48280       -2.22930       -3.71280
H         -0.09280       -2.16090       -1.76030
H          2.42330       -2.53810        0.68650
H          1.56630       -4.72450        1.45770
H         -0.22870       -6.21310        2.03500
H         -1.80760       -5.84260        1.25880
H         -1.49670       -5.33530        2.96100
H         -2.45620       -3.21890        1.35990
H         -1.64520       -1.09600        0.57040
H         -1.71720        0.97750        0.51710
H         -2.63710        2.88400        1.66080
H         -2.41230        4.92490        2.85200
H         -0.99800        5.91030        2.33490
H         -0.93660        4.96110        3.87400
H          1.32910        4.40990        2.32780
H          2.28690        2.44740        1.16760
H          2.45420       -0.20330       -2.64260
H          5.24190        0.91030       -2.90010
H          4.10320        0.41010       -4.18820
H          8.67180       -0.07760        1.95080
H          8.66860        1.53590        1.15550
H         10.59390       -0.80960        0.53430
H         10.58760        0.80780       -0.24080
H         10.49020       -0.66460       -1.27100
H          8.42150       -2.19880        0.54710
H          8.03190       -2.04670       -1.19800
H          8.52740        1.73700       -1.27740
H          8.38540        0.29060       -2.32660
