64

P          0.90940        0.03790       -0.01870
C          0.04880       -1.16950        1.02030
C         -1.33110       -1.13860        1.24400
C         -1.91540       -2.04650        2.12780
C         -1.13530       -3.00750        2.80220
O         -1.66430       -3.89610        3.67810
C         -2.99920       -3.94070        4.04740
C          0.24640       -3.03840        2.57330
C          0.83410       -2.11960        1.70000
C          0.22050        1.50430        0.77030
C          0.22850        1.65190        2.16740
C         -0.32970        2.78630        2.75680
C         -0.90350        3.79580        1.95720
O         -1.47940        4.90490        2.48780
C         -1.65410        5.14320        3.83530
C         -0.89590        3.64880        0.56450
C         -0.34610        2.50770       -0.02570
C          0.33720       -0.58590       -1.62370
C         -0.54410       -1.67240       -1.79190
C         -1.00890       -2.01790       -3.05340
C         -0.60060       -1.29930       -4.18920
O         -0.98750       -1.65650       -5.43950
C         -1.65390       -2.82840       -5.73810
C          0.24970       -0.19990       -4.02810
C          0.71030        0.15530       -2.75640
Ag         3.36940        0.03790       -0.01870
Br         3.20880       -2.24370       -1.04520
C          3.29480        1.99670        0.89250
C          4.22870        2.94670        1.09070
N          5.46940        0.03790       -0.01870
C          6.18240       -0.69470       -0.93820
F          5.57740       -1.29720       -1.98290
C          7.57980       -0.72620       -0.91410
C          8.26540       -0.07150        0.09960
C          7.54860        0.61950        1.06500
C          6.15750        0.67600        0.97620
H         -1.94250       -0.39720        0.75210
H         -2.98150       -1.98590        2.28680
H         -3.15160       -4.75300        4.78080
H         -3.62540       -4.13730        3.15310
H         -3.28980       -2.97470        4.51110
H          0.87040       -3.76280        3.08670
H          1.91080       -2.14970        1.56740
H          0.66460        0.88800        2.79850
H         -0.31220        2.86600        3.83480
H         -2.18580        6.10650        3.97090
H         -0.67110        5.20020        4.34910
H         -2.27090        4.33450        4.28410
H         -1.32740        4.41770       -0.06470
H         -0.35690        2.41180       -1.10400
H         -0.91420       -2.26740       -0.97760
H         -1.69160       -2.85240       -3.12900
H         -1.75560       -2.92900       -6.83580
H         -2.66340       -2.83390       -5.27440
H         -1.06490       -3.69460       -5.36130
H          0.56070        0.37910       -4.88930
H          1.35690        1.01940       -2.65470
H          2.35210        2.38280        1.16340
H          5.26360        2.90650        0.80460
H          3.91820        3.90010        1.51840
H          8.12600       -1.25790       -1.68270
H          9.34520       -0.11320        0.14560
H          8.06140        1.09140        1.89330
H          5.64200        1.12790        1.80160
