56

P          0.91120       -0.04230       -0.01790
C         -0.22320       -1.49330        0.14980
C         -1.49450       -1.61940       -0.44060
C         -2.18770       -2.83970       -0.38160
C         -1.63960       -3.94640        0.26530
F         -2.29210       -5.13600        0.27660
C         -0.41190       -3.82750        0.90370
C          0.27490       -2.61380        0.86150
C          0.39490        0.62370        1.59140
C          0.80570        0.01630        2.79150
C          0.28650        0.44990        4.01940
C         -0.64050        1.49500        4.06230
F         -1.16000        1.90130        5.24700
C         -1.04940        2.10770        2.87960
C         -0.54250        1.67170        1.65560
C          0.26480        0.77930       -1.51380
C          0.07240        2.17140       -1.58230
C         -0.62410        2.74040       -2.65710
C         -1.12340        1.93540       -3.68300
F         -1.84110        2.48460       -4.69430
C         -0.89100        0.56200       -3.65670
C         -0.19070       -0.00860       -2.59030
Ag         3.37120       -0.04230       -0.01790
Br         3.37120        2.54760       -0.03770
C          3.37120       -2.19230       -0.00160
C          4.26600       -3.13130        0.34260
N          5.47120       -0.04230       -0.01790
C          6.14100       -1.08540       -0.58740
C          7.52140       -1.16570       -0.58590
C          8.26370       -0.17280        0.05990
O          9.62130       -0.25240        0.15040
C         10.39100       -1.27170       -0.38290
C          7.59080        0.91420        0.61010
C          6.19120        0.98970        0.51920
H         -1.95150       -0.80040       -0.96860
H         -3.15020       -2.93380       -0.86680
H          0.02600       -4.68050        1.41410
H          1.22410       -2.58310        1.37190
H          1.50060       -0.81050        2.78340
H          0.58710       -0.03680        4.93790
H         -1.78100        2.90600        2.90380
H         -0.93310        2.13890        0.77220
H          0.40870        2.82120       -0.78470
H         -0.81070        3.80860       -2.67450
H         -1.28160       -0.06800       -4.44740
H         -0.06430       -1.08350       -2.58470
H          2.44160       -2.59450       -0.36080
H          5.24710       -2.93170        0.74450
H          3.99450       -4.17700        0.21810
H          5.61880       -1.83840       -1.14560
H          7.98620       -2.00760       -1.08170
H         11.45430       -1.11750       -0.11490
H         10.29520       -1.27640       -1.49010
H         10.06860       -2.25760        0.02170
H          8.14180        1.69110        1.12540
H          5.69910        1.81900        0.99720
