42

P          1.08460        0.04340       -0.03110
C         -0.21910        0.38570        1.19640
C          0.88610        1.58960       -0.96910
C          0.43250       -1.50370       -0.66230
C         -0.18650       -1.58930       -1.91550
C         -0.79550       -2.78750       -2.30970
C         -0.79530       -3.89530       -1.45290
C         -0.17910       -3.81090       -0.20290
C          0.43420       -2.62040        0.19070
Ag         3.54460        0.04340       -0.03110
Br         3.54460       -0.79290       -2.48240
C          3.54460        0.73750        2.00370
C          4.59670        0.97520        2.79040
N          5.64460        0.04340       -0.03110
C          6.32350       -1.12100       -0.19360
C          7.72110       -1.13710       -0.05380
C          8.43210        0.07510        0.12860
O          9.78990        0.13540        0.22670
C         10.61220       -0.95150        0.46340
C          7.69570        1.26480        0.18930
C          6.30250        1.21900        0.17060
H         -1.23190        0.41760        0.75780
H          0.01480        1.35750        1.68730
H         -0.16630       -0.38660        1.99480
H         -0.19410        1.78260       -1.14580
H          1.40730        1.52580       -1.94270
H          1.30270        2.43030       -0.37450
H         -0.21960       -0.72860       -2.57080
H         -1.28620       -2.85320       -3.27140
H         -1.28290       -4.81480       -1.75010
H         -0.19320       -4.65980        0.47000
H          0.87900       -2.55790        1.17780
H          2.56300        0.90430        2.43490
H          5.61640        0.82810        2.48450
H          4.42960        1.32840        3.80310
H          5.78700       -2.05070       -0.29510
H          8.23790       -2.08200       -0.07520
H         11.67020       -0.56830        0.48030
H         10.52380       -1.67950       -0.36230
H         10.37810       -1.39890        1.43800
H          8.20750        2.21630        0.28160
H          5.73620        2.14020        0.23860
