69

P          1.02720       -0.05060        0.08180
C          0.12350        1.23390        0.99290
C         -1.24700        1.54830        0.89460
C         -1.77550        2.54680        1.72150
C         -0.98160        3.24220        2.64360
C         -1.52410        4.30150        3.56100
C          0.37580        2.93640        2.71480
C          0.90110        1.94680        1.90510
C          0.61200        0.61370       -1.57060
C          0.84150        1.92870       -1.99900
C          0.59140        2.29350       -3.33000
C          0.04860        1.37600       -4.23680
C         -0.19130        1.75390       -5.66720
C         -0.26870        0.08340       -3.79180
C          0.01960       -0.30340       -2.47390
C          0.26840       -1.62070        0.61720
C         -0.78110       -1.68540        1.55150
C         -1.45000       -2.89410        1.78530
C         -1.07480       -4.06050        1.10350
C         -1.83100       -5.34730        1.30130
C         -0.00190       -4.01370        0.20610
C          0.65660       -2.80220       -0.04590
Ag         3.48720       -0.05060        0.08180
Br         3.77970        1.85090       -1.48030
C          3.73770       -1.79910        1.17630
C          2.89940       -2.21730        2.09930
N          5.58720       -0.05060        0.08180
C          6.39310        0.37980        1.12220
N          5.85710        0.89490        2.35590
C          4.49810        1.39020        2.43870
C          6.68190        0.91560        3.55800
C          7.79860        0.35850        0.94000
C          8.35380       -0.10910       -0.24680
C          7.51680       -0.59630       -1.24500
C          6.13490       -0.52240       -1.07610
H         -1.87310        1.00870        0.19960
H         -2.84410        2.78570        1.65180
H         -2.61740        4.45740        3.41040
H         -1.00950        5.27360        3.39410
H         -1.36760        4.00760        4.62460
H          1.01880        3.45910        3.41500
H          1.95520        1.74110        1.99800
H          1.25190        2.65980       -1.32620
H          0.83230        3.30100       -3.65780
H          0.15190        2.78170       -5.88690
H         -1.28020        1.68690       -5.90270
H          0.37120        1.05420       -6.33760
H         -0.70030       -0.64170       -4.47400
H         -0.20210       -1.31690       -2.18030
H         -1.13040       -0.80870        2.07000
H         -2.28340       -2.90980        2.47660
H         -2.68120       -5.21930        2.00540
H         -1.15850       -6.13660        1.69430
H         -2.24810       -5.68270        0.32620
H          0.30130       -4.90690       -0.32870
H          1.45430       -2.78470       -0.77360
H          4.65430       -2.36740        1.01530
H          2.09540       -1.56200        2.39350
H          3.12620       -3.12030        2.65310
H          3.79990        0.59530        2.15610
H          4.22800        1.70430        3.47030
H          4.37590        2.28170        1.78440
H          7.02490       -0.11990        3.76520
H          6.12600        1.26940        4.45040
H          7.55570        1.58720        3.44110
H          8.48330        0.75330        1.67160
H          9.42350       -0.12580       -0.37470
H          7.94190       -1.01230       -2.14940
H          5.48880       -0.90840       -1.85030
