110

P          0.93050        0.02240       -0.06830
C          0.16950       -1.44750        0.65960
C         -1.06350       -1.50240        1.32520
C         -1.47170       -2.70470        1.92770
C         -0.66710       -3.85010        1.85110
C          0.54630       -3.80430        1.16890
C          0.96190       -2.61080        0.58340
C          0.40290        1.11080        1.36070
C          0.59810        0.87740        2.74480
C          0.21220        1.82460        3.70700
C         -0.40750        3.01040        3.32370
C         -0.67410        3.23850        1.97850
C         -0.28380        2.29950        1.01560
C          0.21090        0.17830       -1.82000
C          0.26460        1.36650       -2.65120
O          0.71250        2.55290       -2.16930
C          0.72810        3.75480       -2.86960
C         -0.14380        1.30490       -4.00680
C         -0.68450        0.15630       -4.54470
C         -0.85520       -0.95820       -3.73900
C         -0.40820       -0.95630       -2.40510
Ag         3.39050        0.02240       -0.06830
Br         3.28340       -0.77670        2.33700
C          3.40610        0.67370       -2.08790
C          4.39800        1.07610       -2.85250
C          5.54050        0.02240       -0.06830
N          6.37740        1.20790       -0.18740
C          6.24650        2.78200       -0.36750
C          5.04550        3.56110       -0.04590
C          3.83640        3.09670        0.62700
C          2.77160        2.99780       -0.43730
C          4.18870        2.13500        1.72080
C          4.88270        4.95020       -0.26850
C          5.85850        5.72720       -0.72970
C          7.05260        5.15260       -0.97740
C          7.32550        3.74700       -0.82440
C          8.76240        3.46540       -1.29600
C          8.68700        3.16160       -2.78590
C          9.81980        4.59250       -1.04290
C          7.59900        0.67220        0.07870
C          7.55190       -0.68100        0.29070
N          6.30340       -1.12430        0.20960
C          5.99840       -2.58400        0.19060
C          6.44690       -3.49090        1.24210
C          7.29660       -3.09100        2.45490
C          6.65630       -3.50960        3.78690
C          8.70060       -3.74810        2.34470
C          6.18840       -4.88170        1.13870
C          5.56260       -5.43330        0.04660
C          5.24690       -4.63410       -1.01840
C          5.48820       -3.24630       -1.01060
C          5.41430       -2.68590       -2.43610
C          3.99360       -2.47990       -2.95230
C          6.41470       -1.58530       -2.74890
H         -1.68850       -0.62550        1.41180
H         -2.40700       -2.75140        2.46890
H         -0.97900       -4.77300        2.32430
H          1.17160       -4.68830        1.10650
H          1.91930       -2.59530        0.07220
H          1.02330       -0.02120        3.12710
H          0.39330        1.63920        4.75890
H         -0.69550        3.74330        4.06940
H         -1.17680        4.15060        1.68000
H         -0.50290        2.52480       -0.01610
H          1.01930        4.59150       -2.20920
H         -0.28850        3.99820       -3.24700
H          1.45170        3.70580       -3.71210
H         -0.04680        2.15460       -4.67270
H         -0.98750        0.14830       -5.58770
H         -1.31910       -1.83500       -4.17170
H         -0.54020       -1.86860       -1.84740
H          2.47650        0.59010       -2.63830
H          5.38170        1.22660       -2.47280
H          4.22940        1.27300       -3.91050
H          3.43140        3.87950        1.30230
H          3.17800        2.79420       -1.42960
H          2.41870        4.00360       -0.69510
H          1.92830        2.41850       -0.13710
H          4.24800        1.21880        1.28600
H          3.43700        2.05210        2.52030
H          5.20210        2.33150        2.14610
H          3.95410        5.47710       -0.05530
H          5.68300        6.79140       -0.86670
H          7.75210        5.89240       -1.31690
H          9.21930        2.67410       -0.74180
H          8.32110        4.06460       -3.32840
H          7.96700        2.33620       -2.96280
H          9.68350        2.88680       -3.18040
H          9.71230        5.47680       -1.70900
H         10.84150        4.21650       -1.25140
H          9.78970        4.93940        0.01540
H          8.51650        1.16250        0.18600
H          8.41860       -1.29910        0.47500
H          7.44250       -1.99750        2.48830
H          6.53300       -4.61090        3.86530
H          5.66630       -3.02840        3.89800
H          7.31020       -3.20140        4.62970
H          8.64950       -4.86020        2.36160
H          9.35210       -3.44200        3.19150
H          9.20670       -3.45450        1.39940
H          6.51820       -5.58150        1.89690
H          5.41100       -6.50610       -0.00820
H          4.87950       -5.14190       -1.90470
H          5.84400       -3.46350       -3.11760
H          3.39390       -1.89300       -2.23800
H          3.49800       -3.46740       -3.08320
H          4.01760       -1.98870       -3.94840
H          6.17080       -0.65880       -2.27950
H          7.43570       -1.88630       -2.42490
H          7.44270       -1.88460       -2.44610
