68

P          1.27500       -0.00000       -0.00000
N          0.25810       -0.87120        1.17320
C         -1.17610       -0.81240        0.95800
C         -1.47950        0.03110       -0.26210
C         -3.00920        0.07640       -0.44120
C         -0.90400        1.48150       -0.00550
N          0.54590        1.55330        0.34190
N          0.67990       -0.91720       -1.36420
C         -0.78370       -0.65270       -1.50620
Ag         3.73500        0.00030       -0.00050
Br         3.42480        1.41880       -1.97580
C          3.65990       -1.48630        1.44420
C          4.15310       -1.24030        2.66490
C          5.88500        0.00060       -0.00090
N          6.67450       -1.11770       -0.05560
C          6.14320       -2.50300       -0.17240
C          7.21620       -3.57430       -0.33680
C          6.68180       -4.99840       -0.47250
C          7.86200       -5.96250       -0.61460
C          7.96250       -0.64890       -0.05310
C          7.92890        0.72070        0.01940
C          9.10930        1.48970        0.08020
C         10.34370        0.83210        0.04500
C         10.39210       -0.56030       -0.05480
C          9.21540       -1.31460       -0.10260
N          6.64690        1.14950        0.04060
C          6.26290        2.57030        0.26760
C          5.50150        3.27840       -0.81250
C          4.31150        3.95310       -0.47450
C          3.57770        4.63410       -1.44970
C          4.02390        4.65310       -2.77390
C          5.21580        4.00430       -3.12180
C          5.96280        3.32500       -2.14520
H          0.49940       -0.54620        2.13850
H         -1.67520       -0.39990        1.86560
H         -1.54950       -1.85260        0.82490
H         -3.49190        0.50820        0.46590
H         -3.41790       -0.95240       -0.56830
H         -3.29670        0.68590       -1.31870
H         -1.48320        1.95890        0.81880
H         -1.08490        2.09230       -0.91370
H          0.66970        1.74430        1.36290
H          0.85270       -1.92860       -1.16270
H         -1.29020       -1.62330       -1.71640
H         -0.95140       -0.01130       -2.39610
H          3.21110       -2.44730        1.23020
H          4.60170       -0.27830        2.90100
H          4.10980       -1.99570        3.44560
H          5.46740       -2.54520       -1.05320
H          5.58800       -2.77190        0.73810
H          7.84250       -3.56530        0.57800
H          7.79020       -3.34860       -1.26560
H          6.02700       -5.08120       -1.36690
H          6.09660       -5.26650        0.43360
H          8.45420       -5.71540       -1.52290
H          7.49990       -7.00620       -0.69710
H          8.53050       -5.88650        0.27150
H          9.12480        2.56470        0.15160
H         11.25910        1.40150        0.09700
H         11.35570       -1.05880       -0.08000
H          9.37160       -2.36700       -0.17100
H          7.16020        3.19720        0.39890
H          5.72530        2.63200        1.23810
H          3.94530        3.94380        0.54470
H          2.65700        5.13410       -1.17820
H          3.44230        5.16650       -3.52870
H          5.55210        4.02140       -4.15050
H          6.87950        2.82470       -2.42980
