32

P          1.27500        0.00000        0.00000
O          0.30170        1.40050       -0.29190
C         -1.07960        1.17720       -0.24880
C         -1.39790       -0.27860        0.01670
C         -2.92030       -0.47220        0.03690
C         -0.70830       -1.10310       -1.13430
O          0.68610       -0.84220       -1.34890
O          0.64670       -0.27060        1.55030
C         -0.73630       -0.62820        1.40470
Ag         3.73500        0.00030       -0.00050
Br         3.73540       -2.56870        0.32870
C          3.73470        2.13290       -0.27370
C          3.74220        2.68710       -1.48250
C          5.88500        0.00060       -0.00090
N          6.63540        1.08090       -0.29090
C          7.90040        0.64240       -0.17400
C          7.87410       -0.68300        0.18180
O          6.61860       -1.05150        0.28260
H         -1.50700        1.50230       -1.22540
H         -1.51290        1.82820        0.54460
H         -3.36040       -0.15700       -0.93610
H         -3.37920        0.16330        0.82700
H         -3.18640       -1.53010        0.22610
H         -1.22930       -0.84810       -2.08400
H         -0.85560       -2.18620       -0.94890
H         -1.28860       -0.06510        2.18890
H         -0.87000       -1.70960        1.61460
H          3.74960        2.76460        0.60840
H          3.73860        2.06850       -2.37160
H          3.75240        3.76920       -1.57810
H          8.78090        1.24810       -0.33500
H          8.72470       -1.33080        0.35710
