43

P          1.27500        0.00000        0.00000
N          0.25820        1.09250        0.96940
C         -1.17540        0.97360        0.78500
C         -1.47680       -0.15930       -0.18070
C         -3.00400       -0.27820       -0.30690
C         -0.82240        0.21330       -1.56840
N          0.63200        0.54110       -1.53230
N          0.60500       -1.44200        0.72490
C         -0.85390       -1.48410        0.41940
Ag         3.73500        0.00030       -0.00050
Br         3.73490       -1.93710       -1.71930
C          3.73510        1.60860        1.42640
C          4.28860        1.48500        2.62970
C          5.88500        0.00060       -0.00090
N          6.64540        1.12540        0.06760
C          6.25850        2.53100       -0.00680
C          7.92960        0.72420        0.11890
C          7.95940       -0.64550        0.08640
N          6.68710       -1.10330       -0.00770
C          6.36500       -2.52290        0.02720
H          0.57220        2.08160        0.82280
H         -1.58680        1.94010        0.40740
H         -1.63240        0.79270        1.78380
H         -3.44150        0.67930       -0.67340
H         -3.46320       -0.48700        0.68720
H         -3.28460       -1.08820       -1.00580
H         -1.36180        1.09380       -1.99620
H         -0.98800       -0.62790       -2.26760
H          0.77740        1.57630       -1.58400
H          0.76720       -1.38430        1.75600
H         -1.39920       -1.74470        1.35900
H         -1.04900       -2.30950       -0.29540
H          3.25440        2.54230        1.15150
H          4.76680        0.55870        2.92360
H          4.26090        2.32130        3.32240
H          5.18480        2.64760       -0.23680
H          6.79270        3.00830       -0.85590
H          6.53030        3.05580        0.93040
H          8.78840        1.38180        0.16780
H          8.84400       -1.26380        0.12370
H          7.27530       -3.12790        0.21580
H          5.99320       -2.87340       -0.94920
H          5.64310       -2.72720        0.84740
