52

P          0.93100       -0.01840        0.07000
C         -0.03330       -1.50050        0.40280
C         -1.42430       -1.51550        0.56610
C         -2.06080       -2.69870        0.97110
C         -1.31390       -3.86310        1.20430
C          0.07080       -3.85380        1.02950
C          0.70680       -2.67450        0.64760
C          0.33170        0.79290        1.57510
C          0.74320        0.34470        2.84510
C          0.27030        0.97340        4.00180
C         -0.63140        2.03640        3.90220
C         -1.06080        2.47200        2.64670
C         -0.58030        1.85620        1.48790
C          0.38950        0.43790       -1.62220
C         -0.14270       -0.37240       -2.67520
C         -0.23720       -1.87040       -2.68270
C         -0.63170        0.26120       -3.83870
C         -0.59890        1.64180       -3.98370
C         -0.06760        2.43220       -2.97500
C          0.42390        1.83830       -1.81680
Ag         3.39100       -0.01840        0.07000
Br         3.39100       -1.74080       -1.86420
C          3.39100        1.41150        1.67570
C          4.17120        1.84980        2.67770
O          5.44100       -0.01840        0.07000
C          6.30600        0.75720        0.70700
N          7.58690        0.49570        0.38640
C          7.50620       -0.49050       -0.51250
C          6.18400       -0.79000       -0.70900
H         -2.00240       -0.61410        0.42410
H         -3.12810       -2.71210        1.13010
H         -1.80430       -4.77130        1.52940
H          0.65300       -4.74620        1.22360
H          1.78580       -2.67510        0.55350
H          1.44090       -0.47860        2.93580
H          0.60170        0.63800        4.97620
H         -1.00190        2.51970        4.79710
H         -1.76830        3.28740        2.56980
H         -0.93530        2.20380        0.52940
H          0.24810       -2.36620       -1.84330
H          0.28860       -2.25540       -3.58420
H         -1.30270       -2.17630       -2.73550
H         -1.04850       -0.32750       -4.64640
H         -0.98660        2.10820       -4.88400
H         -0.04670        3.51000       -3.08150
H          0.80270        2.49370       -1.04150
H          2.44220        1.90470        1.72740
H          5.11920        1.45160        2.99030
H          3.77400        2.62420        3.33300
H          6.10970        1.58540        1.31600
H          8.35850       -0.92850       -1.00700
H          5.87400       -1.53160       -1.41380
