84

P          1.09110       -0.02030        0.03590
C          0.69230       -0.13610        1.84790
C         -0.64080       -0.09670        2.31150
C         -0.96550       -0.07020        3.67270
C          0.05470       -0.06040        4.61940
C          1.37810       -0.09600        4.19950
C          1.70030       -0.15770        2.82760
C          0.44630        1.50790       -0.71980
C          1.13090        2.19390       -1.72140
C          0.60700        3.37280       -2.26470
C         -0.61480        3.88810       -1.80120
C         -1.29320        3.22380       -0.79320
C         -0.76690        2.05350       -0.26070
C         -0.03490       -1.41220       -0.70590
C         -1.58100       -1.61520       -0.54340
C         -2.44550       -0.76660       -1.49740
C         -2.07230       -1.04900       -2.95780
C         -0.58590       -0.79480       -3.17520
C          0.23350       -1.66550       -2.22230
Ag         3.55110       -0.02030        0.03590
Br         3.55110        2.14250        1.46080
C          3.55110       -1.81560       -1.14700
C          4.21850       -2.83790       -0.61670
C          5.70110       -0.02030        0.03590
N          6.53990        0.19170        1.15100
C          6.17620        0.29650        2.61560
C          5.67480       -1.04840        3.19070
C          7.29290        0.77630        3.57350
C          7.81430        0.09020        0.64210
C          7.75190       -0.11300       -0.70380
C          8.90800       -0.15460       -1.50650
C         10.16550       -0.05140       -0.89770
C         10.25110        0.07540        0.48460
C          9.09210        0.15080        1.26260
N          6.46170       -0.22220       -1.09710
C          6.05360       -0.27870       -2.51890
C          5.67400        1.09690       -3.03930
C          6.63420        2.11380       -3.25990
C          6.24440        3.37010       -3.75340
C          4.89920        3.62860       -4.02520
C          3.94970        2.62650       -3.82690
C          4.33660        1.37070       -3.34540
H         -1.48770       -0.06050        1.66950
H         -2.00240       -0.03610        3.98730
H         -0.20300       -0.00150        5.67130
H          2.16320       -0.06970        4.94390
H          2.73190       -0.17260        2.54700
H          2.06000        1.80410       -2.07490
H          1.12250        3.90290       -3.04850
H         -1.02550        4.79700       -2.21610
H         -2.23640        3.61330       -0.41490
H         -1.34580        1.60450        0.51340
H          0.40600       -2.28430       -0.17400
H         -1.94780       -1.59780        0.48520
H         -1.79370       -2.67230       -0.83450
H         -2.32750        0.30590       -1.28280
H         -3.51730       -1.03040       -1.36370
H         -2.66910       -0.41330       -3.64660
H         -2.29710       -2.11340       -3.20440
H         -0.34780        0.27320       -3.02040
H         -0.32640       -1.06010       -4.22520
H          1.26280       -1.50990       -2.49430
H         -0.01550       -2.72990       -2.45480
H          3.14060       -1.94490       -2.12310
H          4.69770       -2.70810        0.34930
H          4.31680       -3.78190       -1.13930
H          5.42850        1.07370        2.76200
H          6.39170       -1.86470        2.94820
H          4.67190       -1.32280        2.81870
H          5.61290       -1.00840        4.30540
H          8.01220       -0.03470        3.81660
H          6.86440        1.02530        4.56850
H          7.78100        1.69890        3.20050
H          8.88950       -0.25910       -2.58770
H         11.07640       -0.07550       -1.48920
H         11.22380        0.13410        0.96820
H          9.29690        0.26380        2.29870
H          5.26480       -1.02120       -2.66870
H          6.87200       -0.64040       -3.17470
H          7.68440        1.94090       -3.07060
H          6.98080        4.14760       -3.93230
H          4.58860        4.59860       -4.39760
H          2.91350        2.82600       -4.04660
H          3.58810        0.60320       -3.19850
