77

P          0.99010       -0.00170        0.09950
C         -0.07590       -0.57570        1.64370
C          0.45400       -0.23320        3.05140
C         -0.02590        1.12450        3.53030
C         -1.58280        1.15350        3.64410
C         -2.40900        0.55100        2.46080
C         -1.66570       -0.62530        1.73800
C          0.62770        1.91770       -0.00880
C          0.88950        3.39560        0.58930
C         -0.10420        4.44570       -0.09750
C         -1.59840        4.03400       -0.02660
C         -1.74160        2.64950       -0.63410
C         -0.80790        1.74610        0.08840
C          0.24880       -1.09540       -1.35300
C          0.21160       -0.59080       -2.73100
C          0.79420        0.69340       -3.24280
C         -0.37100       -1.32130       -3.79160
C         -0.92190       -2.56940       -3.61010
C         -1.55340       -3.34140       -4.74520
C         -0.87860       -3.12040       -2.35100
C         -0.32390       -2.44890       -1.22930
C         -0.40780       -3.32410        0.00250
Ag         3.45010       -0.00170        0.09950
Br         3.53820        1.23710        2.25090
C          3.45770       -1.06350       -1.73880
C          4.50870       -1.64050       -2.33930
N          5.55010       -0.00170        0.09950
C          6.27400        0.43820       -0.98000
O          5.61310        1.01240       -2.02090
C          6.18990        1.77620       -3.02060
C          7.68290        0.39720       -0.93210
C          8.31830       -0.16180        0.17130
C          7.56180       -0.60980        1.24940
C          6.17370       -0.46080        1.22100
H          0.23690       -1.62320        1.61610
H          1.55190       -0.34250        3.08950
H          0.06000       -0.97920        3.78150
H          0.41700        1.86630        2.86970
H          0.40570        1.34760        4.53020
H         -1.91490        2.19830        3.84760
H         -1.82700        0.53880        4.52700
H         -2.75660        1.32860        1.75580
H         -3.42440        0.26300        2.79420
H         -2.14350       -0.87900        0.76790
H         -1.87680       -1.47330        2.42450
H          0.92120        2.17140       -1.00450
H          1.93140        3.74770        0.42620
H          0.69920        3.49620        1.67170
H          0.13520        4.53370       -1.17710
H         -0.02200        5.45580        0.35960
H         -2.28790        4.71730       -0.56420
H         -1.94180        4.00480        1.03720
H         -1.49700        2.60660       -1.71370
H         -2.76690        2.24620       -0.47980
H         -0.88660        1.69090        1.14560
H         -0.98980        2.02450        1.13230
H          1.45620        1.18810       -2.55850
H         -0.01920        1.35040       -3.62870
H          1.49030        0.47560       -4.07980
H         -0.38180       -0.91180       -4.79970
H         -1.50480       -2.79730       -5.71310
H         -2.62370       -3.52700       -4.51190
H         -1.05210       -4.32570       -4.87890
H         -1.30410       -4.11610       -2.26700
H         -0.82510       -4.33790       -0.20550
H         -1.13590       -2.93470        0.72310
H          0.59820       -3.50960        0.42320
H          2.53510       -1.28260       -2.22030
H          5.51350       -1.62340       -1.95900
H          4.34980       -2.23150       -3.23670
H          5.40990        2.08030       -3.74750
H          6.96190        1.19160       -3.55980
H          6.64520        2.69940       -2.59320
H          8.29240        0.78400       -1.73750
H          9.39740       -0.24180        0.19150
H          8.04810       -1.07980        2.09480
H          5.58390       -0.84590        2.04220
