76

P          0.91540        0.03840        0.03700
C          0.21600        0.85190        1.63660
C          0.51310        2.29310        2.14280
C         -0.33580        3.33280        1.45720
C         -1.81870        2.99740        1.64030
C         -2.15650        1.54480        1.23790
C         -1.25640        0.56190        1.97450
C          0.45030        0.92010       -1.62050
C          0.91120        2.31640       -2.08790
C          2.34420        2.31760       -2.62810
C          2.52150        1.38490       -3.81360
C          2.08830       -0.01900       -3.43580
C          0.67210        0.00550       -2.89250
C          0.06140       -1.75350        0.05780
C         -0.82930       -2.28470       -1.01080
C         -1.69460       -1.57270       -2.05360
C         -1.08470       -3.66400       -1.14360
C         -0.66870       -4.58590       -0.22050
C         -0.94240       -6.05380       -0.42540
C         -0.10120       -4.10870        0.93970
C          0.21460       -2.74210        1.13020
C          0.57110       -2.48880        2.57530
Ag         3.37540        0.03840        0.03700
Br         3.36280        2.50620        0.52000
C          3.35330       -1.98430       -0.27700
C          3.11490       -2.73080        0.79970
N          5.47540        0.03840        0.03700
C          6.17190       -1.15330       -0.05920
C          7.55910       -1.22290        0.07650
C          8.29110       -0.06070        0.29340
C          9.78210       -0.09750        0.47250
C          7.61550        1.15730        0.33550
C          6.22140        1.18330        0.20500
H          0.83730        0.31680        2.36400
H          1.56300        2.54400        2.18290
H          0.25560        2.33320        3.23330
H         -0.08700        3.34510        0.41130
H         -0.10980        4.33370        1.87830
H         -2.42580        3.70970        1.04270
H         -2.06370        3.13610        2.71450
H         -2.02960        1.39070        0.15410
H         -3.21150        1.33860        1.50720
H         -1.52880       -0.49390        1.78480
H         -1.40320        0.72200        3.07240
H         -0.62890        1.05730       -1.48360
H          0.78610        3.09280       -1.34550
H          0.24610        2.62340       -2.93640
H          3.01910        1.93980       -1.87100
H          2.62100        3.35040       -2.91750
H          3.59370        1.36320       -4.10830
H          1.92160        1.75430       -4.67240
H          2.74790       -0.45600       -2.66020
H          2.12800       -0.66390       -4.34450
H          0.48190       -1.05120       -2.73620
H          0.00190        0.36400       -3.71520
H         -1.77440       -0.49520       -1.99630
H         -2.75250       -1.88410       -1.88290
H         -1.46790       -1.90100       -3.09480
H         -1.66330       -4.04190       -1.98580
H         -1.36690       -6.25940       -1.43430
H         -1.66130       -6.42130        0.33410
H          0.00460       -6.62960       -0.34600
H          0.08290       -4.83080        1.72900
H         -0.23890       -2.96340        3.17430
H          0.41910       -1.48760        2.92860
H          1.48840       -2.96940        2.94840
H          3.75180       -2.49960       -1.13820
H          2.98540       -2.21580        1.72910
H          3.24540       -3.80400        0.77820
H          5.70610       -2.10340       -0.17980
H          8.05170       -2.18560        0.02720
H         10.16360       -1.14640        0.43690
H         10.03590        0.31910        1.47280
H         10.28800        0.49100       -0.31060
H          8.16140        2.08210        0.47860
H          5.79890        2.15770        0.27610
