90

P          0.93840       -0.07700        0.01630
C         -0.18560       -1.52610        0.63270
C         -1.70260       -1.26590        0.73070
C         -2.29720       -1.20180       -0.66870
C         -2.10310       -2.55420       -1.37650
C         -0.64430       -3.00060       -1.37600
C         -0.00970       -2.93460       -0.00750
C          0.42470        1.11430        1.45620
C          0.67010        0.59690        2.91130
C          2.14940        0.68360        3.29650
C          2.57710        2.15060        3.29500
C          2.33120        2.74570        1.92230
C          0.90050        2.58930        1.44440
C          0.54000        0.53760       -1.74210
C          0.84820       -0.11760       -2.99600
C          1.67070       -1.36970       -3.21670
C          0.35920        0.42820       -4.21670
C         -0.35160        1.59500       -4.23670
C         -0.60670        2.28790       -3.07030
C         -0.17370        1.76090       -1.84650
Ag         3.39840       -0.07700        0.01630
Br         3.39840        2.25670       -1.10710
C          3.39840       -2.01430        0.94880
C          3.86990       -3.17630        1.47830
P          5.85840       -0.07700        0.01630
O          7.35490       -0.87470        0.36750
C          6.99690       -2.25590        0.59730
C          7.04100       -3.18240       -0.64420
C          7.68670       -2.94290        1.77810
O          5.96990       -0.65280       -1.59680
C          5.68120        0.23290       -2.66610
C          6.36710        1.61730       -2.64440
C          6.19160       -0.47050       -3.92990
O          6.45570        1.50700        0.21200
C          6.02520        2.04120        1.44930
C          6.50550        1.26400        2.69260
C          6.50930        3.48680        1.53570
H          0.17020       -1.74220        1.64850
H         -1.94870       -0.37910        1.32920
H         -2.18200       -2.11230        1.27970
H         -1.81020       -0.38040       -1.22410
H         -3.37810       -0.97550       -0.60470
H         -2.44710       -2.47090       -2.43110
H         -2.70630       -3.32310       -0.85630
H         -0.10870       -2.30460       -1.97450
H         -0.53650       -4.02170       -1.80100
H          1.04350       -3.26820       -0.06840
H         -0.52380       -3.68850        0.63800
H         -0.65930        1.21660        1.31760
H          0.28190       -0.40100        3.11580
H          0.10130        1.24110        3.62090
H          2.75510        0.09170        2.57720
H          2.30650        0.27050        4.31280
H          3.65920        2.22780        3.53030
H          2.00960        2.72610        4.05570
H          2.91710        2.14140        1.27150
H          2.63560        3.81390        1.88530
H          0.77900        3.08880        0.47070
H          0.25990        3.16930        2.15760
H          2.10360       -1.76900       -2.28510
H          2.48910       -1.14880       -3.93740
H          1.04910       -2.14500       -3.72890
H          0.54310       -0.08640       -5.15850
H         -0.70300        2.00190       -5.20470
H         -1.13430        3.23210       -3.11700
H         -0.45720        2.32620       -0.98620
H          2.35230       -2.12820        1.11590
H          4.83520       -3.61070        1.61130
H          3.13930       -3.88070        1.88390
H          5.99940       -2.26660        0.93610
H          8.07490       -3.32100       -1.00780
H          6.39910       -2.85690       -1.48100
H          6.61650       -4.17990       -0.38010
H          8.77070       -3.06060        1.61040
H          7.25110       -3.96860        1.90500
H          7.47620       -2.40620        2.72620
H          4.58350        0.33420       -2.76530
H          7.46920        1.52570       -2.56070
H          6.00170        2.28900       -1.85510
H          6.12590        2.16350       -3.58350
H          7.30150       -0.57250       -3.89050
H          5.92480        0.10480       -4.84200
H          5.75770       -1.48780       -4.01290
H          4.93860        2.08060        1.46150
H          7.61170        1.20160        2.71690
H          6.07920        0.23920        2.72130
H          6.14920        1.77450        3.61390
H          7.61940        3.52180        1.54790
H          6.12060        3.96910        2.45890
H          6.14080        4.06320        0.66060
