58

P          1.04620       -0.02140       -0.08610
C          0.16550        1.64690       -0.43500
C         -1.37570        1.63540       -0.61070
C          0.58070        2.60860        0.72560
C          0.70850        2.34540       -1.69580
C          0.80660       -0.88240       -1.67970
C          1.88910       -1.44730       -2.36810
C          1.70890       -2.15640       -3.55900
C          0.42330       -2.34720       -4.06630
C         -0.67740       -1.85430       -3.36750
C         -0.48930       -1.14020       -2.17920
C          0.13600       -0.79230        1.32390
C         -0.78740       -0.12130        2.16450
C         -1.37050       -0.75770        3.26040
C         -1.05170       -2.07730        3.55540
C         -0.16800       -2.77560        2.73460
C          0.40780       -2.14880        1.61690
Ag         3.50620       -0.02140       -0.08610
Br         3.56710        1.11780       -2.35420
C          3.69260       -1.03350        1.80320
C          2.82470       -1.11020        2.80160
N          5.60620       -0.02140       -0.08610
C          6.23630        1.03790       -0.68850
C          7.64230        1.17080       -0.67850
O          8.27980        2.29660       -1.09380
C          7.67730        3.51870       -1.30700
C          8.40540        0.13150       -0.16580
C          7.77850       -0.97010        0.39960
C          6.38640       -1.00860        0.46530
H         -1.95020        1.13560        0.18090
H         -1.67840        1.21110       -1.58010
H         -1.74570        2.68330       -0.64910
H          0.29960        2.31970        1.74460
H          0.17950        3.63460        0.56870
H          1.68970        2.69130        0.77130
H          0.58950        1.71570       -2.60150
H          1.75110        2.65510       -1.54740
H          0.18660        3.31170       -1.87740
H          2.89100       -1.37110       -1.97880
H          2.56070       -2.56920       -4.08130
H          0.28000       -2.90730       -4.98560
H         -1.67660       -2.04060       -3.73670
H         -1.36720       -0.83050       -1.64330
H         -1.08240        0.89150        2.04240
H         -2.06100       -0.21440        3.89500
H         -1.49050       -2.55320        4.42260
H          0.08470       -3.79940        2.97540
H          1.11110       -2.70600        1.01590
H          4.62030       -1.42230        2.16040
H          1.90530       -0.58910        2.80230
H          3.10470       -1.59220        3.73540
H          5.65470        1.85950       -1.05930
H          8.45340        4.28610       -1.49760
H          7.11600        3.83120       -0.39270
H          6.98780        3.46720       -2.17360
H          9.48840        0.18750       -0.17430
H          8.36680       -1.79390        0.77730
H          5.97940       -1.92570        0.85020
