62

P          1.05670       -0.08150        0.01170
C          0.17980       -1.24540        1.30590
C         -1.36620       -1.23360        1.35890
C          0.56760       -2.72080        1.01160
C          0.69190       -1.00090        2.74200
C          0.65390        1.50210        0.86530
C          1.62750        2.45650        1.20330
C          1.29120        3.60540        1.93330
C         -0.03380        3.84470        2.29720
C         -1.02790        2.96910        1.87560
C         -0.68750        1.83100        1.14510
C          0.23100       -0.57760       -1.53370
C         -0.58080        0.35890       -2.19500
C         -1.27550        0.00340       -3.35760
C         -1.17820       -1.29460       -3.86390
C         -0.36500       -2.23010       -3.22500
C          0.34590       -1.87190       -2.07770
Ag         3.51670       -0.08150        0.01170
Br         3.51670        0.53450        2.52740
C          3.51670       -0.59290       -2.07660
C          4.37710       -0.62650       -3.10810
N          5.61670       -0.08150        0.01170
C          6.47100        0.56090        0.84120
N          7.76210        0.42540        0.41420
C          8.95460        1.13230        0.84040
C          8.87000        2.19480        1.75870
C         10.01000        2.95610        2.06590
C         11.23510        2.67020        1.46040
C         11.33180        1.61950        0.55290
C         10.20640        0.85840        0.24360
C          7.71100       -0.44540       -0.60700
C          6.41100       -0.74130       -0.85220
H         -1.80670       -1.30900        0.34410
H         -1.78220       -0.39850        1.94420
H         -1.73380       -2.10500        1.94660
H          0.03560       -3.13640        0.14170
H          0.25650       -3.39230        1.84430
H          1.66810       -2.83560        0.89690
H          0.54680        0.04670        3.07140
H          1.74950       -1.30230        2.82920
H          0.16240       -1.64990        3.47390
H          2.65480        2.32100        0.91300
H          2.05980        4.30960        2.22170
H         -0.29660        4.72210        2.87400
H         -2.06610        3.16780        2.11290
H         -1.49260        1.22090        0.79650
H         -0.67990        1.36650       -1.81290
H         -1.89700        0.73120       -3.86290
H         -1.72680       -1.57510       -4.75380
H         -0.28300       -3.23540       -3.61810
H          0.98690       -2.61190       -1.62910
H          2.53990       -0.83990       -2.41260
H          5.41380       -0.34700       -3.11200
H          3.99310       -0.93770       -4.07900
H          6.15410        1.21730        1.63890
H          7.93950        2.46320        2.22750
H          9.93610        3.78240        2.76090
H         12.10680        3.27380        1.67950
H         12.27860        1.40170        0.07250
H         10.33660        0.07160       -0.48490
H          8.53830       -0.83130       -1.18130
H          6.09780       -1.45910       -1.57980
