52

P          1.02590        0.08280       -0.04970
C          0.49990        1.87770       -0.15140
C         -0.43090        2.43010        0.76850
C         -0.86520        3.75750        0.67310
C         -0.38470        4.58520       -0.33390
C          0.53130        4.08200       -1.24850
C          0.95340        2.75490       -1.15960
C          0.73680       -0.90780       -1.54380
C          0.64430       -0.31430       -2.81450
C          0.44930       -1.09820       -3.95530
C          0.31500       -2.48130       -3.83970
C          0.38420       -3.08390       -2.58270
C          0.60490       -2.30460       -1.44210
C         -0.21230       -0.57100        1.15910
C         -1.69660       -0.54290        1.03530
C         -2.40070       -0.10350       -0.07820
C         -3.79800       -0.10150       -0.05450
C         -4.48840       -0.53750        1.08930
C         -3.78600       -0.98590        2.20600
C         -2.39570       -0.99120        2.18060
Ag         3.48590        0.08280       -0.04970
Br         3.58690        1.06920       -2.34010
C          3.60210       -0.75530        1.91550
C          2.68690       -1.17860        2.77940
N          5.58590        0.08280       -0.04970
C          6.38410        0.69570       -0.96340
O          7.65980        0.47880       -0.74550
C          7.75070       -0.29560        0.30010
C          6.48210       -0.54250        0.75980
H         -0.85860        1.87000        1.57590
H         -1.58820        4.14550        1.37860
H         -0.71800        5.61070       -0.41360
H          0.90840        4.71740       -2.04030
H          1.61640        2.46640       -1.91770
H          0.73710        0.74710       -2.94600
H          0.40200       -0.62990       -4.93000
H          0.15690       -3.08560       -4.72380
H          0.27220       -4.15650       -2.49250
H          0.66260       -2.80170       -0.48490
H          0.00900       -0.02020        2.09470
H          0.03640       -1.63880        1.32110
H         -1.87140        0.24070       -0.95940
H         -4.34910        0.24070       -0.91440
H         -5.57170       -0.52800        1.10670
H         -4.30960       -1.31720        3.09420
H         -1.86300       -1.33310        3.06090
H          4.56300       -0.86730        2.35370
H          1.65430       -1.19230        2.60750
H          3.00320       -1.56730        3.74390
H          6.06420        1.32910       -1.76760
H          8.67320       -0.69490        0.70080
H          6.31910       -1.21900        1.57340
