39

P          1.07150        0.01360       -0.06860
C         -0.04570        1.45390        0.02220
C          0.76180       -0.35560       -1.82850
C          0.17570       -0.94190        1.19860
Ag         3.53150        0.01360       -0.06860
Br         3.53150        1.52000       -2.17540
C          3.53150       -1.23700        1.68030
C          4.38650       -1.15990        2.70100
N          5.63150        0.01360       -0.06860
C          6.35620        1.12380       -0.45330
N          5.74220        2.43200       -0.40790
C          4.64750        2.68090        0.53330
C          6.32350        3.61410       -1.01360
C          7.76450        1.04270       -0.56620
C          8.40720       -0.17050       -0.24180
C          7.65770       -1.24990        0.20890
C          6.27550       -1.13000        0.31590
H         -1.10120        1.20360       -0.19100
H          0.30900        2.21310       -0.71050
H          0.04600        1.91310        1.03040
H         -0.33390       -0.41380       -1.99850
H          1.21250       -1.33280       -2.09180
H          1.14420        0.43250       -2.49710
H         -0.91650       -0.87430        0.97800
H          0.35080       -0.52920        2.21040
H          0.44390       -2.01330        1.14240
H          2.76450       -2.00120        1.72050
H          5.18610       -0.43120        2.72180
H          4.28750       -1.86270        3.52500
H          4.32120        1.76890        1.07070
H          3.77790        3.13950        0.02960
H          4.98770        3.38740        1.32130
H          7.16880        3.38550       -1.69250
H          6.68280        4.30680       -0.21340
H          5.55420        4.14120       -1.61200
H          8.38760        1.87470       -0.78880
H          9.47730       -0.24160       -0.31540
H          8.14970       -2.17890        0.46360
H          5.72040       -2.00680        0.61060
