44

C          1.02400       -0.65300       -0.05500
N          1.03500        0.62270       -0.14330
C          2.23100        1.41440       -0.36470
C          2.45770        2.40510        0.77480
C         -0.30050        1.16680       -0.00780
C         -1.21060       -0.07680        0.03020
N         -0.27200       -1.16300        0.11620
C         -0.60320       -2.55780        0.34140
C         -1.49300       -3.11190       -0.76370
Ag         2.78020       -1.86970       -0.29550
Br         3.28900       -1.24870        2.06150
C          2.17780       -2.21130       -2.29920
C          1.17210       -1.59550       -2.94030
N          4.49560       -3.05820       -0.53040
C          4.51480       -4.16140       -1.35520
C          3.22120       -4.85150       -1.74210
C          5.66200       -4.95830       -1.46690
C          6.80170       -4.62530       -0.74710
C          6.75330       -3.56210        0.14490
C          5.57140       -2.82920        0.28210
H          2.12370        1.97480       -1.31740
H          3.12460        0.75720       -0.45150
H          1.60470        3.11160        0.85260
H          3.37920        2.99230        0.57680
H          2.57490        1.86330        1.73620
H         -0.57200        1.83090       -0.85790
H         -0.35360        1.72310        0.95300
H         -1.77280       -0.18700       -0.92530
H         -1.90490       -0.03610        0.89260
H         -1.13380       -2.64310        1.31440
H          0.32610       -3.16550        0.39630
H         -2.44130       -2.53850       -0.82870
H         -1.74000       -4.17070       -0.53730
H         -0.96690       -3.06880       -1.73890
H          2.77540       -2.83410       -2.94650
H          0.52540       -0.88630       -2.47610
H          1.01760       -1.80680       -3.99290
H          2.33130       -4.36870       -1.28760
H          3.18500       -5.83040       -1.20930
H          3.11570       -5.05160       -2.82390
H          5.64770       -5.87810       -2.04070
H          7.69230       -5.23390       -0.82390
H          7.62540       -3.30580        0.73220
H          5.57930       -1.99370        0.95960
