74

C          0.90100       -0.64300       -0.00200
N         -0.41240       -1.16190       -0.06530
C         -1.01030       -2.57010       -0.11330
C         -0.19950       -3.75140       -0.18980
C          1.19430       -3.69650       -0.42840
C         -0.66880       -5.05740       -0.11050
C         -2.00130       -5.31890       -0.00010
C         -2.45950       -6.74090        0.13560
C         -2.88490       -4.24720       -0.04270
C         -2.43830       -2.89210       -0.10870
C         -3.56500       -1.89850       -0.20320
C         -1.15190       -0.04040        0.01440
C         -0.36150        1.05840        0.12170
N          0.95070        0.74540        0.08110
C          2.00320        1.82600        0.23610
C          3.32730        1.67310        0.83600
C          4.02740        0.43470        1.22250
C          4.13510        2.78530        1.12300
C          3.77070        4.06540        0.79490
C          4.64570        5.23500        1.14560
C          2.58350        4.25570        0.11490
C          1.70960        3.18950       -0.17890
C          0.52290        3.60110       -1.01890
Ag         2.65840       -1.88140       -0.01350
Br         2.70040       -1.79780       -2.60180
C          2.62360       -1.95090        2.13510
C          1.67660       -1.40970        2.90580
N          4.37500       -3.09110       -0.02470
C          5.48310       -2.69180       -0.76690
C          5.58390       -1.38540       -1.49950
C          6.66810       -3.45210       -0.79360
C          6.77300       -4.62740       -0.07310
C          8.02420       -5.46190       -0.08650
C          5.69090       -5.03610        0.67400
C          4.49800       -4.28740        0.70970
C          3.39550       -5.00110        1.48300
H          1.20270       -2.89430       -1.11570
H          1.60520       -4.53070       -1.04180
H          1.64500       -3.54520        0.54080
H          0.03270       -5.89200       -0.13950
H         -1.59560       -7.44580        0.18790
H         -3.08510       -7.02590       -0.73190
H         -3.03200       -6.85610        1.07890
H         -3.94060       -4.48320       -0.00820
H         -4.55970       -2.38560       -0.29480
H         -3.44730       -1.30960       -1.14070
H         -3.62550       -1.27610        0.70840
H         -2.20560        0.07260        0.03620
H         -0.79810        2.01660        0.27350
H          3.57110       -0.34740        0.70460
H          4.11760        0.32000        2.32490
H          5.05560        0.41900        0.79160
H          5.10330        2.64430        1.61610
H          5.56390        4.91700        1.68910
H          4.08210        5.92350        1.81110
H          4.94870        5.77510        0.22810
H          2.33730        5.26540       -0.18860
H          0.74780        4.52280       -1.59370
H         -0.34330        3.89290       -0.39960
H          0.31860        2.83490       -1.79930
H          3.45210       -2.43470        2.63650
H          0.82180       -0.88910        2.50250
H          1.76160       -1.48300        3.98540
H          4.71150       -0.73170       -1.36280
H          5.77550       -1.57660       -2.57870
H          6.45020       -0.81530       -1.09710
H          7.52460       -3.11120       -1.36510
H          8.81980       -5.00480       -0.71090
H          7.79530       -6.47060       -0.49310
H          8.41160       -5.57640        0.94870
H          5.78240       -5.97290        1.21400
H          3.75820       -5.92070        1.99110
H          2.65190       -5.41300        0.77910
H          2.91360       -4.43590        2.28720
