48

C          0.90100       -0.64300       -0.00200
N         -0.40760       -1.05260        0.17650
C         -1.07040       -2.37230        0.40080
C         -0.07300       -3.50700        0.66830
C         -2.03690       -2.27490        1.61360
C         -1.90630       -2.73970       -0.84830
C         -1.14890        0.07040        0.03930
C         -0.34070        1.13380       -0.19180
N          0.93870        0.71030       -0.23740
C          2.07560        1.63470       -0.46480
C          2.12250        2.70230        0.65680
C          3.42300        0.89370       -0.46260
C          1.87070        2.34440       -1.81890
Ag         2.65840       -1.88140       -0.01350
Br         2.52170       -2.05160       -2.59430
C          2.77200       -1.74020        2.12880
C          1.85630       -1.09690        2.86380
O          4.33420       -3.06230       -0.02450
C          4.97320       -3.46730       -1.11350
N          6.07090       -4.19180       -0.82930
C          6.10970       -4.22460        0.50710
C          5.02520       -3.54260        0.99900
H          0.49440       -3.31790        1.60240
H          0.62710       -3.63350       -0.18080
H         -0.62880       -4.46210        0.80510
H         -1.49290       -1.97350        2.53230
H         -2.54890       -3.24410        1.79730
H         -2.84530       -1.53230        1.43600
H         -1.25130       -2.85570       -1.73730
H         -2.66100       -1.95630       -1.07940
H         -2.45830       -3.69190       -0.69460
H         -2.22610        0.12890        0.10230
H         -0.66720        2.15450       -0.32640
H          2.27350        2.22820        1.65170
H          1.17880        3.28740        0.69710
H          2.95160        3.42200        0.48010
H          3.59750        0.40720        0.52050
H          4.25580        1.60630       -0.64680
H          3.45470        0.13330       -1.25790
H          0.96240        2.98550       -1.79080
H          1.73560        1.59940       -2.62950
H          2.72930        2.99990       -2.06400
H          3.51970       -2.19870        2.73270
H          0.99120       -0.61050        2.44540
H          1.93750       -1.09170        3.94630
H          4.69490       -3.28560       -2.13030
H          6.88790       -4.70220        1.08780
H          4.88070       -3.43510        2.04760
