70

C          1.02400       -0.65300       -0.05500
N          0.50110        0.22840       -0.85340
C          0.93300        0.72200       -2.15590
C          2.15860        0.07220       -2.76860
C         -0.68080        0.81900       -0.25380
C         -0.94750       -0.02510        0.98520
N          0.27240       -0.76420        1.13870
C          0.86200       -1.05360        2.43230
C          1.06390       -2.54320        2.64070
Ag         2.78020       -1.86970       -0.29550
Br         1.33470       -3.75070       -1.33500
C          3.98010       -0.30830        0.56740
C          3.63310        0.97960        0.58050
C          4.53640       -3.08650       -0.53600
N          4.56650       -4.46940       -0.61770
C          3.48200       -5.41390       -0.32710
C          3.68140       -6.38820        0.83760
C          2.34790       -7.14500        1.04760
C          2.39890       -8.03790        2.27270
C          5.85010       -4.83020       -0.79030
C          6.63370       -3.71760       -0.74180
C          8.03390       -3.81230       -0.83930
C          8.61150       -5.07260       -1.01090
C          7.80880       -6.21420       -1.07080
C          6.41180       -6.10470       -0.95420
N          5.87180       -2.61450       -0.57560
C          6.56690       -1.28060       -0.55060
C          7.26490       -0.96210       -1.83500
C          6.47990       -0.88010       -2.99180
C          7.06220       -0.57380       -4.21120
C          8.43900       -0.34870       -4.29550
C          9.23170       -0.40430       -3.14310
C          8.64630       -0.69980       -1.90990
H          1.12570        1.81490       -2.06070
H          0.09010        0.59780       -2.87330
H          3.04610        0.19900       -2.12220
H          2.35890        0.58850       -3.73550
H          1.96610       -0.99810       -2.97850
H         -1.56650        0.79600       -0.92680
H         -0.43730        1.86840        0.02060
H         -1.73790       -0.77430        0.75520
H         -1.24670        0.58200        1.86640
H          0.19400       -0.68100        3.24160
H          1.82930       -0.51660        2.53330
H          0.08870       -3.07000        2.57770
H          1.49310       -2.70860        3.65280
H          1.76350       -2.94830        1.88210
H          4.86980       -0.59770        1.10690
H          2.74260        1.33390        0.08320
H          4.27270        1.70520        1.07240
H          3.17890       -5.95360       -1.24870
H          2.73790       -4.82770        0.20810
H          3.93120       -5.81210        1.75840
H          4.48040       -7.12630        0.66040
H          2.12290       -7.75790        0.14600
H          1.50440       -6.42980        1.18980
H          3.22490       -8.77140        2.17000
H          1.43480       -8.58050        2.37400
H          2.55570       -7.41540        3.17790
H          8.68230       -2.96070       -0.77640
H          9.69240       -5.15180       -1.09730
H          8.27010       -7.18250       -1.20290
H          5.81010       -6.99530       -1.00430
H          7.27380       -1.25360        0.31520
H          5.96590       -0.38950       -0.52230
H          5.41040       -1.04200       -2.92220
H          6.43900       -0.51460       -5.09200
H          8.88680       -0.12380       -5.25130
H         10.29610       -0.21640       -3.20950
H          9.27200       -0.72390       -1.02100
