66

P          1.27500        0.00000        0.00000
N          0.34290        1.54740       -0.15070
C          0.74900        2.55790        0.88620
C          2.26690        2.84710        0.90070
C          0.07880        3.94190        0.67640
C         -1.11920        1.37420       -0.24900
C         -1.51640       -0.06730       -0.04060
C         -3.05460       -0.19050       -0.05740
C         -0.89000       -0.93730       -1.18640
N          0.56570       -0.71330       -1.47440
C          1.21290       -1.99210       -1.91130
C          0.46770       -2.71500       -3.05470
C          2.65290       -1.77320       -2.38880
N          0.46940       -0.38310        1.56230
C          1.02030       -1.46290        2.42860
C          0.39540       -1.45870        3.83020
C          0.88010       -2.89250        1.85580
C         -1.00250       -0.49660        1.36820
Ag         3.73500        0.00030       -0.00050
Br         3.46460        1.66580       -1.86020
C          3.86870       -1.76190        1.13420
C          3.84760       -2.99100        0.60840
N          5.83500        0.00060       -0.00090
C          6.47580        0.91700       -0.79870
C          7.86860        1.00710       -0.85730
Cl         8.63530        2.25140       -1.83020
C          8.64330        0.11150       -0.13240
C          8.01340       -0.82750        0.66960
C          6.61620       -0.85120        0.75100
H          0.47860        2.18470        1.89920
H          2.56910        3.35180       -0.03880
H          2.87740        1.93840        1.06720
H          2.52580        3.54800        1.72170
H          0.32660        4.34160       -0.33000
H          0.44580        4.66290        1.44000
H         -1.01830        3.93020        0.78940
H         -1.46010        1.74030       -1.24070
H         -1.65610        1.95620        0.52700
H         -3.46740        0.15640       -1.02810
H         -3.50750        0.43350        0.74700
H         -3.36880       -1.24220        0.10850
H         -1.43640       -0.72620       -2.13210
H         -1.10260       -1.99260       -0.89870
H          1.21670       -2.70700       -1.08130
H          0.48490       -2.13090       -3.99070
H         -0.58000       -2.97530       -2.80210
H          0.96700       -3.70360       -3.23980
H          2.67610       -1.10480       -3.27200
H          3.11280       -2.74650       -2.66130
H          3.27390       -1.32880       -1.60390
H          2.06330       -1.22060        2.62480
H         -0.68360       -1.71350        3.79830
H          0.53160       -0.46810        4.30990
H          0.90230       -2.22170        4.46260
H         -0.16520       -3.22580        1.71260
H          1.36520       -3.63050        2.52750
H          1.37880       -2.97610        0.90260
H         -1.48620        0.12980        2.15330
H         -1.37500       -1.52130        1.54170
H          4.06390       -1.68810        2.19560
H          3.69310       -3.19230       -0.44660
H          3.95550       -3.86400        1.25140
H          5.93960        1.63920       -1.36860
H          9.72220        0.15200       -0.18670
H          8.60670       -1.53750        1.23140
H          6.21750       -1.60590        1.39740
