57

P         -1.21400       -0.05560        0.86100
N         -1.05060       -1.22340       -0.53740
C         -2.15260       -1.07450       -1.50040
C          0.17250       -1.50020       -1.30530
C          1.36910       -1.34610       -0.48860
N          1.86880        0.06580       -0.29370
C          1.21620        1.43490       -0.25690
C         -0.10810        1.63130       -0.98330
N         -1.32450        1.35340       -0.16220
C         -1.73020        2.50000        0.64820
N          0.14700       -0.73930        1.94260
C         -0.19530       -1.71130        2.99440
C          1.56860       -0.21190        2.10250
C          2.59830       -0.05380        0.92810
Ag        -3.32260        0.00260        2.26790
Br        -2.30360        1.90290        3.70270
C         -4.16840       -1.57490        1.07680
C         -3.69280       -2.81080        0.92600
N         -5.02100        0.09630        3.41250
C         -6.24300        0.16910        2.77710
O         -6.29170        0.31960        1.42110
C         -7.42440        0.58180        0.67140
C         -7.43120        0.29580        3.53270
C         -7.37040        0.25390        4.91420
C         -6.13610        0.13440        5.54150
C         -4.96050        0.10670        4.77650
H         -3.10490       -0.80680       -1.02060
H         -2.29230       -2.02150       -2.06260
H         -1.92730       -0.26000       -2.21550
H          0.27930       -0.96030       -2.26100
H          0.11990       -2.58490       -1.56110
H          2.20480       -1.99910       -0.82070
H          1.14220       -1.95470        0.40380
H          1.98500        2.16090       -0.61990
H          1.05420        1.89250        0.73710
H         -0.09720        1.10610       -1.94600
H         -0.14330        2.70300       -1.28090
H         -1.83430        3.40600        0.02330
H         -0.99610        2.71770        1.45430
H         -2.74290        2.30640        1.06090
H         -1.15500       -1.47360        3.48400
H          0.55730       -1.70570        3.83040
H         -0.15850       -2.73070        2.56160
H          1.44500        0.79960        2.49300
H          2.16600       -0.97380        2.66960
H          3.34800       -0.88790        0.82360
H          3.29470        0.80600        1.09050
H         -5.05680       -1.35280        0.50730
H         -2.79490       -3.15810        1.41460
H         -4.23500       -3.48960        0.26560
H         -7.15410        0.63940       -0.40070
H         -7.87970        1.55220        0.97220
H         -8.15370       -0.23960        0.81350
H         -8.39630        0.43910        3.06690
H         -8.28680        0.32440        5.48860
H         -6.10300        0.05360        6.62250
H         -4.01380       -0.02390        5.26730
