69

C          0.90100       -0.64300       -0.00200
N         -0.33950       -1.08640       -0.41910
C         -0.91600       -2.38030       -0.79960
C         -0.43500       -3.62910       -0.25130
C          0.74990       -3.79440        0.67200
C         -1.15580       -4.81270       -0.48270
C         -2.33490       -4.81130       -1.21210
C         -3.19070       -6.02670       -1.32060
C         -2.77730       -3.64620       -1.80090
C         -2.11010       -2.43280       -1.62630
C         -2.78440       -1.26100       -2.34140
C         -1.17800       -0.06800       -0.12970
C         -0.50820        0.97390        0.34980
N          0.78630        0.65920        0.46690
C          1.71060        1.76890        0.67150
C          1.42370        2.86710        1.56830
C          0.30460        2.91790        2.58780
C          2.16820        4.05540        1.47410
C          3.17120        4.20440        0.51880
C          3.86610        5.52080        0.32190
C          3.47590        3.14260       -0.32770
C          2.75670        1.94110       -0.26890
C          3.02260        0.93530       -1.35420
Ag         2.65840       -1.88140       -0.01350
Br         2.00440       -2.38090       -2.39180
C          2.82680       -1.30510        2.05600
C          1.85390       -0.76710        2.81130
N          4.37500       -3.09110       -0.02470
C          5.10460       -3.51550        1.08800
O          4.64210       -3.31370        2.33930
C          5.16750       -3.78850        3.52820
C          6.28410       -4.28440        0.93550
C          6.73680       -4.63350       -0.31720
C          6.00150       -4.24980       -1.41860
C          4.82810       -3.50920       -1.25490
H          1.69080       -3.63400        0.14790
H          0.86350       -4.84200        1.03060
H          0.63720       -3.16550        1.57690
H         -0.83010       -5.74640       -0.04040
H         -2.75000       -6.89280       -0.78650
H         -3.37760       -6.28200       -2.38200
H         -4.15930       -5.78090       -0.82990
H         -3.69750       -3.68460       -2.37170
H         -3.56240       -1.60640       -3.05630
H         -2.05900       -0.66870       -2.93410
H         -3.41110       -0.63550       -1.68290
H         -2.23390       -0.03780       -0.20630
H         -0.97060        1.93440        0.56980
H         -0.27480        1.98340        2.68760
H         -0.39750        3.74270        2.31640
H          0.71630        3.14870        3.59230
H          1.92410        4.89780        2.11440
H          3.50570        6.29120        1.03640
H          3.63030        5.88520       -0.70450
H          4.96260        5.40870        0.42010
H          4.23050        3.28590       -1.08300
H          3.81160        1.25850       -2.05590
H          2.08750        0.80160       -1.94300
H          3.34310       -0.01920       -0.90380
H          3.69720       -1.45640        2.64440
H          0.84520       -0.59000        2.47980
H          2.03510       -0.55690        3.86220
H          4.53600       -3.43710        4.37010
H          6.19650       -3.40090        3.67770
H          5.16910       -4.90060        3.53700
H          6.85290       -4.63580        1.78780
H          7.64670       -5.21350       -0.42940
H          6.34970       -4.51590       -2.40870
H          4.35520       -3.22300       -2.16420
