50

C          0.90100       -0.64300       -0.00200
N          0.21800       -0.29740        1.13190
C          0.36150       -0.65810        2.54520
C          1.42790       -1.69710        2.85140
C         -0.80370        0.48270        0.72800
C         -0.77990        0.57410       -0.63220
N          0.25900       -0.15020       -1.09640
C          0.53080       -0.35720       -2.51520
C          0.86750        0.95590       -3.21500
Ag         2.65840       -1.88140       -0.01350
Br         1.18570       -3.96730       -0.44740
C          3.88100       -0.14990        0.34670
C          3.42090        1.10280        0.40540
P          4.66930       -3.29850       -0.02670
C          4.76120       -5.11440       -0.25460
C          5.38510       -2.76370       -1.60870
C          5.80880       -3.03940        1.47690
C          5.02130       -3.56820        2.69810
C          7.10390       -3.86760        1.32110
C          6.26500       -1.61840        1.83950
H         -0.60580       -1.10160        2.88400
H          0.54020        0.25560        3.15220
H          1.22300       -2.64070        2.30430
H          1.39100       -1.92670        3.94150
H          2.43130       -1.30570        2.60460
H         -1.54140        0.91980        1.39160
H         -1.50090        1.10530       -1.23980
H         -0.38990       -0.77910       -2.98200
H          1.35740       -1.08010       -2.65420
H          0.05570        1.70450       -3.08720
H          0.99580        0.77150       -4.30160
H          1.81100        1.37150       -2.80370
H          4.92780       -0.23610        0.43410
H          2.37640        1.35330        0.30870
H          4.11880        1.91940        0.56770
H          4.13060       -5.36990       -1.13300
H          4.29350       -5.62520        0.61310
H          5.76900       -5.50990       -0.45730
H          4.67540       -3.06220       -2.41460
H          6.32830       -3.32570       -1.78480
H          5.56790       -1.67790       -1.65410
H          4.71640       -4.62640        2.57600
H          4.09360       -2.97360        2.83960
H          5.61580       -3.49830        3.63270
H          6.91500       -4.95090        1.22600
H          7.73630       -3.77670        2.23110
H          7.69010       -3.50960        0.44920
H          5.42590       -1.01670        2.23960
H          6.80740       -1.14460        0.99360
H          6.97110       -1.64390        2.69870
