104

P          1.27500        0.00000        0.00000
N          0.32150        0.65830       -1.38490
C          0.94440        1.86410       -1.99670
C          0.33100        2.20470       -3.37090
C          0.83940        3.11430       -1.10570
C         -1.13180        0.71010       -1.28920
C         -1.58050        0.05210       -0.02390
C         -3.12390        0.05480        0.00630
C         -1.06950       -1.42010       -0.08240
N          0.41790       -1.64690        0.03550
C          0.55060       -2.46870        1.31330
C         -0.20380       -3.84370        1.37680
C          1.96880       -2.76770        1.73880
N          0.44610        1.03240        1.27960
C          0.86970        1.07340        2.75130
C          0.18610        2.17290        3.57670
C          0.81660       -0.19850        3.59520
C         -1.03380        0.85510        1.19620
Ag         3.73500        0.00030       -0.00050
Br         3.73480       -1.65240       -1.99460
C          3.73510        1.37230        1.65490
C          3.45000        2.67550        1.59820
C          5.88500        0.00060       -0.00090
N          6.71230        0.82130       -0.72570
C          6.41710        1.73860       -1.83870
C          7.21130        2.76120       -2.52710
C          8.62360        3.26570       -2.23000
C          6.71540        3.32850       -3.75390
C          5.48980        2.91460       -4.27990
C          4.97600        3.35990       -5.61750
C          4.78990        1.92450       -3.64450
C          5.36750        1.27370       -2.57520
C          5.75980       -0.12300       -2.99080
C          8.08730        0.46120       -0.42120
C          8.02590       -0.11670        0.93420
N          6.71340       -0.69170        1.04530
C          6.63270       -1.87280        1.95720
C          7.51000       -2.00370        3.12980
C          8.45710       -0.94290        3.65630
C          7.52550       -3.18270        3.90850
C          6.68550       -4.24500        3.63300
C          6.72080       -5.51340        4.44330
C          5.81020       -4.14070        2.57220
C          5.80020       -3.00710        1.73110
C          4.90240       -3.09340        0.56800
H          2.01960        1.62840       -2.16250
H         -0.71530        2.56990       -3.26880
H          0.33050        1.32150       -4.04070
H          0.91220        3.02080       -3.85110
H         -0.20460        3.47540       -1.01130
H          1.45310        3.93470       -1.53370
H          1.19530        2.90920       -0.09250
H         -1.55050        0.17850       -2.17510
H         -1.52870        1.74410       -1.30830
H         -3.53700       -0.51320       -0.84410
H         -3.52940        1.09360       -0.03780
H         -3.49560       -0.40710        0.94330
H         -1.43170       -1.93390       -0.99670
H         -1.66410       -1.86760        0.73160
H          0.05520       -1.91440        2.10540
H          0.16850       -4.55470        0.61410
H         -1.30780       -3.80130        1.29910
H         -0.04170       -4.30480        2.38260
H          2.33010       -3.66860        1.22000
H          2.01560       -3.00730        2.82850
H          2.56100       -1.86440        1.57840
H          1.86330        1.36810        2.86090
H         -0.87010        1.92300        3.80100
H          0.28060        3.15590        3.07100
H          0.71380        2.25420        4.55820
H         -0.20810       -0.60310        3.71620
H          1.21200       -0.04800        4.62020
H          1.54730       -0.88000        3.18950
H         -1.47980        1.87710        1.18370
H         -1.43700        0.35040        2.10460
H          4.08050        0.95850        2.59840
H          3.13890        3.15760        0.69070
H          3.51510        3.26340        2.51180
H          9.12050        2.91300       -1.33030
H          8.64250        4.35120       -2.20450
H          9.27700        2.93080       -3.09200
H          7.32100        4.00820       -4.32040
H          5.65300        4.07280       -6.12550
H          3.95890        3.79560       -5.52840
H          4.89100        2.45750       -6.26830
H          3.93410        1.48590       -4.13780
H          5.96790       -0.84530       -2.19290
H          6.82520       -0.17470       -3.25420
H          5.16070       -0.49170       -3.83620
H          8.85700        1.22730       -0.37480
H          8.37510       -0.33550       -1.14480
H          8.08930        0.73310        1.64580
H          8.86390       -0.84580        1.03470
H          7.97600        0.05020        3.65770
H          8.67190       -1.10010        4.73630
H          9.44830       -0.97660        3.15570
H          8.20940       -3.27810        4.74910
H          7.53730       -5.51040        5.19840
H          6.88860       -6.37820        3.76450
H          5.74890       -5.65160        4.96100
H          5.16620       -4.99360        2.37860
H          4.28410       -4.01620        0.59420
H          5.48540       -3.13160       -0.36490
H          4.29550       -2.19430        0.60270
