53

P         -1.35000        0.00100        0.79800
N         -1.13660       -1.06110       -0.64400
C         -2.38010       -1.05790       -1.43070
C          0.03730       -1.27320       -1.53030
C          1.36920       -1.20080       -0.84740
N          1.60790        0.10740       -0.24090
C          1.30210        1.41450       -0.85380
C         -0.21560        1.73170       -1.11180
N         -1.16920        1.62750        0.02870
C         -0.88450        2.71290        0.99620
N          0.02940       -0.68090        1.81090
C         -0.24410       -1.47110        3.00820
C          1.13170        0.26610        2.10570
C          2.22430        0.08310        1.08460
Ag        -3.32260        0.00260        2.26790
Br        -2.93490       -2.50430        2.79090
C         -3.64440        2.08360        1.83370
C         -4.01860        2.47360        0.61670
O         -4.96640        0.00390        3.49280
C         -4.90460        1.06350        4.40660
C         -6.11940        0.98810        5.32940
C         -3.62480        0.87130        5.23350
H         -3.26970       -1.13060       -0.76770
H         -2.41790       -1.93570       -2.10970
H         -2.46400       -0.13220       -2.03760
H          0.03900       -0.63960       -2.43190
H         -0.04570       -2.30410       -1.94540
H          2.18080       -1.43310       -1.56920
H          1.37000       -2.00950       -0.08190
H          1.85400        1.48530       -1.81510
H          1.73510        2.21450       -0.21990
H         -0.63180        1.19510       -1.96450
H         -0.23890        2.77490       -1.49740
H         -1.36720        3.64930        0.65070
H          0.18780        2.96830        1.07980
H         -1.21810        2.47260        2.02310
H         -0.97660       -0.94930        3.66080
H          0.65420       -1.65020        3.63820
H         -0.43990       -2.51080        2.69640
H          0.77620        1.28790        2.16520
H          1.63020        0.11310        3.08940
H          2.72070       -0.90240        1.26360
H          3.01850        0.84860        1.18850
H         -3.45910        2.83900        2.59020
H         -4.17140        1.74300       -0.16890
H         -4.14480        3.53060        0.40150
H         -4.94530        2.05060        3.92680
H         -6.16780        0.00220        5.84050
H         -7.04810        1.12920        4.73830
H         -6.06680        1.78720        6.10050
H         -3.63520       -0.12680        5.73050
H         -3.52770        1.64930        6.01860
H         -2.72940        0.90950        4.57770
