31

C          0.90100       -0.64300       -0.00200
N          0.05200       -0.55550        1.04280
C          0.11660       -1.26250        2.31400
C         -0.96350        0.23670        0.64490
C         -0.72410        0.61610       -0.65660
N          0.42670        0.04240       -1.06210
C          1.06080        0.21900       -2.36230
Ag         2.65840       -1.88140       -0.01350
Br         1.39450       -3.66220       -1.40620
C          3.70770       -0.40320        1.14260
C          3.22690        0.82540        1.36230
O          4.33420       -3.06230       -0.02450
C          5.47700       -2.89430        0.63310
C          6.34910       -3.91790        0.34410
C          5.68680       -4.75660       -0.50370
C          4.45660       -4.18310       -0.72340
H          1.03650       -1.88100        2.37590
H         -0.75890       -1.94730        2.37420
H          0.06760       -0.55160        3.16420
H         -1.82730        0.49260        1.24290
H         -1.35280        1.25000       -1.26730
H          0.44740        0.89090       -3.00310
H          1.19040       -0.75520       -2.87020
H          2.05210        0.70390       -2.22050
H          4.64470       -0.56000        1.62340
H          2.28510        1.17230        0.96830
H          3.79420        1.52310        1.97210
H          5.78810       -2.11030        1.27960
H          7.35760       -4.03670        0.71950
H          6.05830       -5.68530       -0.91820
H          3.73050       -4.64990       -1.35360
