42

C          0.90100       -0.64300       -0.00200
N         -0.36820       -1.13730        0.11690
C         -0.93340       -2.49490        0.24720
C          0.05300       -3.64190        0.11600
C         -1.19080       -0.07620        0.11940
C         -0.44830        1.06430       -0.04530
N          0.84990        0.71000       -0.14610
C          1.90440        1.66330       -0.49120
C          2.06620        2.75540        0.56020
Ag         2.65840       -1.88140       -0.01350
Br         2.50200       -2.07950       -2.59120
C          2.78830       -1.71700        2.12630
C          1.89070       -1.03630        2.85130
N          4.37500       -3.09110       -0.02470
C          5.25960       -3.14340        1.03510
C          6.43800       -3.90410        1.01810
C          7.33980       -3.96220        2.22240
C          6.77160       -4.60040       -0.13290
C          5.91230       -4.55720       -1.21740
C          4.72110       -3.82430       -1.13970
H         -1.69740       -2.63120       -0.55610
H         -1.45560       -2.57490        1.22430
H          0.52910       -3.62800       -0.88450
H         -0.52010       -4.59300        0.20900
H          0.81250       -3.60770        0.91950
H         -2.26330       -0.12180        0.21630
H         -0.84050        2.05870       -0.12280
H          1.59740        2.15560       -1.44840
H          2.86510        1.14470       -0.67080
H          1.10460        3.29020        0.73250
H          2.80240        3.49940        0.18890
H          2.42490        2.31560        1.50540
H          3.50880       -2.15420        2.77650
H          1.05120       -0.50990        2.43120
H          1.99180       -0.99140        3.93250
H          5.15380       -2.58230        1.91450
H          6.91690       -3.40090        3.08430
H          8.33610       -3.54020        1.98210
H          7.45740       -5.02030        2.54220
H          7.69110       -5.17090       -0.18680
H          6.16820       -5.09130       -2.12350
H          4.12370       -3.86780       -2.01790
