71

C          0.90100       -0.64300       -0.00200
N         -0.35520       -1.13280       -0.29520
C         -0.90260       -2.46400       -0.61370
C         -0.36350       -3.68700       -0.06250
C          0.84120       -3.79770        0.82450
C         -1.02790       -4.90750       -0.26810
C         -2.20240       -4.97910       -0.99620
C         -2.97290       -6.25480       -1.10370
C         -2.70170       -3.84390       -1.59960
C         -2.09150       -2.59580       -1.44010
C         -2.79890       -1.47210       -2.18870
C         -1.17070       -0.08870       -0.08230
C         -0.47310        1.00880        0.25890
N          0.83050        0.70420        0.33230
C          1.79960        1.78490        0.48250
C          1.56820        2.94150        1.32670
C          0.43920        3.11160        2.32580
C          2.41780        4.05960        1.22480
C          3.47520        4.08430        0.31890
C          4.32110        5.30790        0.13340
C          3.71840        2.97400       -0.47570
C          2.89460        1.84920       -0.41420
C          3.13280        0.78240       -1.41620
Ag         2.65840       -1.88140       -0.01350
Br         2.39840       -2.22680       -2.56720
C          2.87430       -1.59480        2.10630
C          2.00980       -0.93290        2.88170
N          4.37500       -3.09110       -0.02470
C          5.26820       -3.09600       -1.12810
C          5.25730       -2.21110       -2.35100
C          6.46190       -3.84240       -1.13450
C          6.85160       -4.56380       -0.05250
C          6.03400       -4.59730        1.03750
C          4.79350       -3.90860        1.06570
C          3.96420       -4.38740        2.27510
H          1.74720       -3.62690        0.24520
H          1.00040       -4.83320        1.19850
H          0.72890       -3.15940        1.71940
H         -0.65140       -5.82160        0.17730
H         -2.47820       -7.08390       -0.55750
H         -3.11570       -6.53510       -2.16590
H         -3.96600       -6.08030       -0.63340
H         -3.61300       -3.94180       -2.17920
H         -3.57170       -1.86190       -2.88570
H         -2.08660       -0.89280       -2.81120
H         -3.41770       -0.83140       -1.54020
H         -2.23980       -0.06100       -0.13250
H         -0.91020        1.98310        0.40310
H         -0.20830        2.22980        2.46130
H         -0.19150        3.97860        2.01810
H          0.85810        3.34330        3.32830
H          2.22990        4.93910        1.83300
H          4.00060        6.13790        0.79450
H          4.21640        5.64880       -0.92040
H          5.38870        5.07250        0.32850
H          4.52990        3.01300       -1.19440
H          3.96610        1.01370       -2.10900
H          2.21340        0.65330       -2.02900
H          3.39580       -0.12540       -0.86820
H          3.77500       -1.91540        2.58420
H          1.08120       -0.52830        2.51480
H          2.22870       -0.79370        3.93510
H          4.69630       -1.28300       -2.22630
H          5.01850       -2.81080       -3.26110
H          6.26840       -1.78500       -2.53270
H          7.14340       -3.82370       -1.98110
H          7.79010       -5.10650       -0.06530
H          6.37790       -5.22350        1.85190
H          4.57650       -5.02420        2.95390
H          3.18380       -5.06490        1.89410
H          3.49770       -3.77330        3.04470
