39

C         -0.20230       -1.25580        0.09500
N         -1.13860       -0.19650        0.00960
C         -2.60000       -0.20390       -0.01020
C         -0.38350        0.96710        0.01650
C         -0.83240        2.43290       -0.00380
C          0.94150        0.62040        0.03740
C          2.11850        1.57360        0.00350
N          1.02770       -0.73060        0.06960
C          2.27490       -1.47830        0.04250
Ag        -0.49020       -3.48260       -0.01010
Br        -0.36030       -3.38560       -2.59500
C         -0.59800       -3.56320        2.13570
C         -0.47060       -2.47960        2.90760
N         -0.66820       -5.53470       -0.03760
C         -1.33400       -6.17500       -1.09120
F         -1.94830       -5.49550       -2.08070
C         -1.50380       -7.55990       -1.07920
C         -0.97710       -8.30890       -0.03510
C         -0.28940       -7.66780        0.98460
C         -0.17500       -6.28130        0.96640
H         -2.99590       -1.23600        0.00170
H         -2.98760        0.33070       -0.90710
H         -2.99460        0.33770        0.88360
H         -1.92600        2.60290       -0.00310
H         -0.40610        2.96110       -0.89040
H         -0.41120        2.96500        0.88320
H          1.82380        2.64430       -0.01280
H          2.72990        1.39030       -0.90590
H          2.74310        1.41470        0.90390
H          3.14970       -0.79470        0.02230
H          2.31850       -2.09180       -0.88150
H          2.34190       -2.10290        0.94860
H         -0.79960       -4.47750        2.67260
H         -0.31080       -1.49210        2.50870
H         -0.54580       -2.56700        3.98600
H         -2.05750       -8.04680       -1.87240
H         -1.09550       -9.38210       -0.01660
H          0.15610       -8.23420        1.78950
H          0.41770       -5.83290        1.74230
