40

C          0.90100       -0.64300       -0.00200
N         -0.35280       -1.11660       -0.10890
C         -0.76040       -2.51520       -0.15840
C         -1.16470       -0.05140       -0.04240
C         -0.38450        1.07900        0.08420
N          0.91300        0.70300        0.11240
C          2.07520        1.58440        0.10270
C          1.92680        2.98960        0.11370
C          3.04390        3.83030        0.03380
C          4.32650        3.28770       -0.05130
C          4.49350        1.90670       -0.06520
C          3.38200        1.06080        0.01660
Ag         2.65840       -1.88140       -0.01350
Br         2.55600       -2.00280       -2.59860
C          2.74350       -1.78070        2.13250
C          1.93100       -1.02220        2.87620
N          4.37500       -3.09110       -0.02470
C          5.09620       -3.22970       -1.18690
C          6.25860       -3.99910       -1.25590
C          6.64420       -4.75080       -0.15990
F          7.73110       -5.55710       -0.22900
C          5.89600       -4.67660        1.00320
C          4.80620       -3.80340        1.07100
H          0.12640       -3.18110       -0.14030
H         -1.36680       -2.70800       -1.06390
H         -1.37430       -2.73840        0.74540
H         -2.24500       -0.08620       -0.07710
H         -0.75820        2.08880        0.12400
H          0.94990        3.45720        0.15240
H          2.91770        4.90420        0.03070
H          5.19180        3.93900       -0.11890
H          5.49030        1.48340       -0.13730
H          3.57200        0.01060       -0.02350
H          3.44350       -2.30440        2.74230
H          1.15060       -0.40370        2.46810
H          2.04390       -1.02120        3.95760
H          4.88900       -2.65070       -2.05760
H          6.85110       -4.01010       -2.16250
H          6.14510       -5.30430        1.85000
H          4.24980       -3.88490        1.97120
