73

C          2.16780        0.02600       -0.08000
N          1.35390        1.12990       -0.02290
C          1.72190        2.54620        0.05630
C          2.56280        3.04190       -1.11670
C          2.86140        4.53960       -0.92290
C          3.72110        5.08220       -2.05410
C          0.06080        0.67830       -0.06120
C          0.06280       -0.67550       -0.04770
C         -1.13550       -1.42380        0.02590
C         -2.35280       -0.73940        0.01570
C         -2.36620        0.66420       -0.03090
C         -1.15980        1.39170       -0.05450
N          1.33430       -1.12400       -0.05960
C          1.58740       -2.55480        0.23020
C          1.48520       -3.52880       -0.97540
C          0.19200       -4.07680       -1.67580
C         -0.40230       -3.18530       -2.77200
Ag         4.47690        0.05800        0.00140
Br         4.42580        1.26610        2.29180
C          4.51930       -0.94480       -1.89990
C          3.41510       -1.01050       -2.65150
P          6.90560        0.23970        0.10290
C          7.96470        1.21730        1.19720
C          7.82070       -1.39890        0.00180
C          7.16320       -2.64900       -0.02140
C          7.89710       -3.85050       -0.14140
C          9.29100       -3.83250       -0.23080
C          9.96450       -2.61810       -0.17780
C          9.24470       -1.42030       -0.05690
C          7.31250        1.05530       -1.50160
C          6.84820        2.35390       -1.78090
C          7.21710        3.01010       -2.97040
C          8.06230        2.38760       -3.89190
C          8.53640        1.10540       -3.63500
C          8.16310        0.44300       -2.45930
H          2.26090        2.72430        1.01050
H          0.81050        3.17220        0.07420
H          2.01030        2.90000       -2.07470
H          3.51630        2.47350       -1.16210
H          3.39790        4.69230        0.03980
H          1.91240        5.12260       -0.88460
H          4.67710        4.52440       -2.09470
H          3.94210        6.15730       -1.88120
H          3.18750        4.97470       -3.02130
H         -1.15060       -2.50180        0.07210
H         -3.28570       -1.29340        0.04800
H         -3.31850        1.17900       -0.03290
H         -1.21250        2.46570       -0.06310
H          0.92930       -2.90490        1.07850
H          2.59990       -2.64870        0.66930
H          1.99230       -4.44710       -0.60740
H          2.11040       -3.08210       -1.75290
H         -0.59390       -4.49660       -1.00070
H          0.55610       -4.95780       -2.25070
H         -0.98350       -2.33340       -2.38450
H         -1.08180       -3.78950       -3.41860
H          0.41390       -2.81370       -3.42490
H          5.45760       -1.20980       -2.37610
H          2.47820       -0.57810       -2.34430
H          3.45810       -1.34510       -3.67860
H          7.79630        0.83920        2.22660
H          7.56320        2.25630        1.17860
H          9.03830        1.24460        0.95710
H          6.08840       -2.70390        0.03840
H          7.39240       -4.80840       -0.17160
H          9.85380       -4.75730       -0.33970
H         11.04930       -2.60830       -0.23760
H          9.82480       -0.51200       -0.03330
H          6.21230        2.86520       -1.07410
H          6.86070        4.01010       -3.17950
H          8.35680        2.89770       -4.80360
H          9.20370        0.62530       -4.34410
H          8.57510       -0.54000       -2.32040
