95

C          1.02400       -0.65300       -0.05500
N          0.92360        0.68420        0.14200
C          1.88330        1.82090        0.42990
C          3.14560        2.07460       -0.19250
C          3.64340        1.34380       -1.36480
C          4.05940        3.08210        0.27560
C          3.73130        3.93750        1.30750
C          4.73670        4.90070        1.90640
C          2.45610        3.87330        1.80580
C          1.54960        2.87330        1.39870
C          0.25070        2.93010        2.11410
C         -0.48130        1.00610        0.14510
C         -1.21750       -0.20390       -0.30180
N         -0.29870       -1.26350       -0.07100
C         -0.77360       -2.58710        0.34350
C         -2.05200       -3.11990       -0.08270
C         -3.13720       -2.43580       -0.90760
C         -2.42290       -4.42910        0.26310
C         -1.62570       -5.24140        1.05390
C         -2.01730       -6.64520        1.38790
C         -0.46060       -4.72240        1.56990
C         -0.02890       -3.43020        1.25110
C          1.18670       -2.99410        1.97310
Ag         2.78020       -1.86970       -0.29550
Br         3.61090       -1.13330        2.04460
C          2.09070       -2.48110       -2.23800
C          2.74970       -3.26180       -3.09740
C          4.53640       -3.08650       -0.53600
N          5.58610       -2.85300       -1.40630
C          5.83600       -1.68610       -2.22470
C          6.09690       -0.53970       -1.29570
C          7.25990       -0.49080       -0.30730
C          7.13230        0.81450        0.50540
C          6.47430       -3.84240       -1.25000
C          5.98170       -4.73240       -0.33720
C          6.73400       -5.86700        0.01330
C          7.98510       -6.08420       -0.61050
C          8.47690       -5.16410       -1.54700
C          7.72580       -4.03860       -1.88870
N          4.79440       -4.27270        0.13690
C          4.03050       -4.98270        1.15980
C          2.70560       -5.54120        0.63340
C          2.70780       -6.54040       -0.52660
C          3.38890       -7.87020       -0.22110
H          3.07100        0.43940       -1.63700
H          4.62870        1.20460       -1.05970
H          3.76890        2.02310       -2.23350
H          5.05210        3.18650       -0.17540
H          5.75410        4.78480        1.45070
H          4.83350        4.69060        2.97620
H          4.41360        5.95750        1.76700
H          2.16740        4.59770        2.56130
H          0.11850        3.53030        3.02860
H          0.21180        1.93110        2.56420
H         -0.52320        3.25350        1.37120
H         -0.73150        1.87040       -0.51180
H         -0.87510        1.10800        1.15110
H         -1.39530       -0.13180       -1.39610
H         -2.13160       -0.26830        0.33670
H         -3.16990       -1.35160       -1.02770
H         -4.11340       -2.61060       -0.40360
H         -3.16590       -2.86530       -1.91920
H         -3.36820       -4.83440       -0.08360
H         -2.99290       -6.91780        0.93100
H         -2.08970       -6.77460        2.48730
H         -1.24290       -7.34060        0.99160
H          0.12500       -5.35300        2.23220
H          1.60120       -3.76100        2.66510
H          0.98450       -2.08680        2.57200
H          1.93750       -2.84680        1.22460
H          1.10070       -2.14080       -2.52430
H          3.72260       -3.67470       -2.88850
H          2.29030       -3.51930       -4.04600
H          4.95020       -1.50130       -2.86410
H          6.70990       -1.79800       -2.89260
H          5.21510       -0.58980       -0.62820
H          6.21420        0.33810       -1.96980
H          8.23020       -0.50120       -0.84030
H          7.20840       -1.35180        0.39610
H          7.18190        1.70120       -0.16580
H          7.94260        0.90350        1.25730
H          6.15880        0.85800        1.04680
H          6.41010       -6.59650        0.73920
H          8.57680       -6.96620       -0.36840
H          9.43730       -5.33050       -2.02130
H          8.13540       -3.34330       -2.60880
H          3.86740       -4.31010        2.02330
H          4.59830       -5.84590        1.56230
H          2.09710       -4.71790        0.26830
H          2.20340       -6.03280        1.49830
H          3.13290       -6.09140       -1.45160
H          1.63560       -6.76050       -0.71820
H          4.49030       -7.76600       -0.25340
H          3.07360       -8.25440        0.77150
H          3.08150       -8.61290       -0.99070
