33

C         -0.28210       -1.12290        0.06470
N          0.54240       -0.14790       -0.62690
C          1.61730       -0.23860       -1.75800
C          0.21140        1.08500       -0.04660
Cl         0.81940        2.79170       -0.35180
C         -0.77620        0.88290        0.89000
Cl        -1.57690        2.13520        1.85820
N         -1.10110       -0.41650        0.95550
C         -2.11130       -0.84370        1.91730
Ag        -0.54090       -3.51350       -0.00380
Br         1.86900       -3.85320        0.70330
C         -2.51510       -3.22090       -0.59030
C         -2.90540       -2.23460       -1.23100
N         -0.81650       -5.58400       -0.03630
C          0.26580       -6.42590        0.00620
F          1.54120       -6.11720       -0.06930
C          0.12670       -7.76120       -0.00880
C         -1.10950       -8.30120       -0.02770
F         -1.23970       -9.62680       -0.02360
C         -2.19960       -7.49630       -0.03970
C         -2.03810       -6.16240       -0.02820
F         -3.17690       -5.56000        0.10850
H          1.63500       -1.14160       -2.43700
H          2.69630       -0.16130       -1.37850
H          1.43080        0.16460       -2.74030
H         -2.58120       -0.04680        2.46670
H         -1.70870       -1.58140        2.64290
H         -2.96790       -1.13760        1.33840
H         -3.30200       -3.77850       -0.57020
H         -2.10750       -1.71180       -1.40320
H         -3.96490       -1.94750       -1.32010
H          0.98160       -8.38610       -0.01330
H         -3.18610       -7.90440       -0.03610
