43

C          0.90100       -0.64300       -0.00200
N         -0.34480       -1.08660        0.30620
C         -0.78580       -2.40800        0.72810
C         -1.17570       -0.03710        0.17540
C         -0.44200        1.04340       -0.21280
N          0.86260        0.68530       -0.31860
C          1.90720        1.60140       -0.70420
C          3.24440        1.41140       -0.30960
C          4.22090        2.35790       -0.65720
C          3.88490        3.47520       -1.42600
C          2.56620        3.66360       -1.83660
C          1.59010        2.73970       -1.47090
Ag         2.65840       -1.88140       -0.01350
Br         3.05590       -1.34060        2.48800
C          2.32850       -2.33040       -2.09010
C          1.23810       -1.94530       -2.76180
N          4.37500       -3.09110       -0.02470
C          4.63680       -4.20250       -0.85330
C          3.69010       -4.88330       -1.81560
C          5.84710       -4.91900       -0.74600
C          6.78020       -4.59380        0.20760
C          6.52610       -3.53270        1.05030
C          5.34580       -2.80010        0.91230
H          0.06400       -3.11080        0.80410
H         -1.53670       -2.79170        0.00460
H         -1.28140       -2.31930        1.72260
H         -2.23820       -0.05310        0.36950
H         -0.84020        2.03640       -0.37700
H          3.52380        0.56460        0.29550
H          5.24470        2.22690       -0.33170
H          4.63900        4.20240       -1.70020
H          2.30030        4.52530       -2.43950
H          0.57680        2.92590       -1.81700
H          3.06020       -2.81330       -2.69510
H          0.42060       -1.41110       -2.30540
H          1.15130       -2.16480       -3.82120
H          2.62680       -4.67590       -1.60970
H          3.73440       -5.98470       -1.68500
H          4.01870       -4.71060       -2.86860
H          6.04940       -5.77690       -1.38220
H          7.68930       -5.17410        0.30300
H          7.24630       -3.28110        1.81720
H          5.27060       -1.97590        1.58140
