92

C          2.27370       -0.04980       -0.04840
N          1.46780        0.32530       -1.11550
C          1.84190        0.91880       -2.40870
C          2.72090        0.03310       -3.26930
C          3.07140        0.75620       -4.58040
C          3.95600       -0.13160       -5.44100
C          0.18260        0.17940       -0.68430
C          0.19340       -0.21600        0.62180
C         -1.00150       -0.38240        1.34930
C         -2.22530       -0.14820        0.69900
C         -2.24440        0.26970       -0.64230
C         -1.03900        0.44700       -1.34940
N          1.47630       -0.31720        1.05350
C          1.81580       -0.41720        2.49610
C          1.75290       -1.82650        3.13120
C          2.90420       -2.66250        2.56220
C          3.11330       -4.06050        3.14860
Ag         4.47690        0.05800        0.00140
Br         4.44930        2.47120        0.94160
C          4.49980       -1.94520       -0.77900
C          3.39670       -2.64590       -1.08000
P          7.01500        0.20890        0.00440
C          8.23830       -1.20330       -0.16170
C          8.02370       -1.80400       -1.56570
C          9.73620       -0.90490       -0.00400
C          7.89640       -2.26410        0.93110
C          7.49650        1.64050       -1.28250
C          6.83840        3.04050       -1.05970
C          9.02510        1.97450       -1.32860
C          7.03150        1.27400       -2.70430
C          7.25080        0.94170        1.74770
C          6.77460        0.26490        2.88020
C          6.87760        0.80090        4.18440
C          7.45780        2.06970        4.45510
N          7.51660        2.64050        5.80860
C          6.99250        1.95850        6.99220
C          8.06060        3.96630        6.12190
C          7.95490        2.75060        3.32250
C          7.86160        2.20300        2.02420
H          2.35880        1.88200       -2.21300
H          0.93520        1.15110       -3.00400
H          2.17620       -0.90820       -3.49910
H          3.65630       -0.19020       -2.72040
H          3.61050        1.70640       -4.36290
H          2.14660        1.00790       -5.14880
H          4.88620       -0.38020       -4.88750
H          4.22350        0.39140       -6.38250
H          3.41330       -1.06820       -5.68880
H         -1.00680       -0.67850        2.38860
H         -3.16130       -0.27270        1.23440
H         -3.19800        0.46680       -1.12320
H         -1.10000        0.79290       -2.37080
H          1.09990        0.23900        3.04930
H          2.80400        0.04260        2.68970
H          1.87550       -1.71290        4.23550
H          0.76080       -2.30800        2.97090
H          3.85580       -2.10640        2.70970
H          2.69820       -2.77230        1.48680
H          3.50610       -4.02190        4.18790
H          3.88490       -4.56930        2.52760
H          2.18890       -4.67150        3.11370
H          5.40140       -2.48400       -0.95110
H          2.39240       -2.27710       -0.95260
H          3.48010       -3.64790       -1.48420
H          8.54100       -1.20100       -2.32300
H          6.98300       -1.78500       -1.89950
H          8.41590       -2.83540       -1.64930
H         10.16280       -0.37080       -0.84960
H         10.30170       -1.86070       -0.00730
H          9.93990       -0.35290        0.93510
H          6.82690       -2.29540        1.21930
H          8.48900       -2.09580        1.86140
H          8.17450       -3.28600        0.59600
H          7.11140        3.60150       -0.15530
H          5.75290        3.00600       -1.18390
H          7.16580        3.75170       -1.85830
H          9.47120        2.15930       -0.33190
H          9.24190        2.89190       -1.92420
H          9.61290        1.23450       -1.87950
H          5.94220        1.07020       -2.68590
H          7.55680        0.42170       -3.14330
H          7.21070        2.11420       -3.41730
H          6.29030       -0.68810        2.76840
H          6.46830        0.18420        4.95690
H          6.56830        0.96390        6.81910
H          6.18530        2.57130        7.44970
H          7.80000        1.82780        7.74640
H          8.48310        4.52450        5.27670
H          8.86960        3.88180        6.88310
H          7.25860        4.60510        6.55680
H          8.42070        3.72200        3.39660
H          8.28890        2.82710        1.27740
