64

P          0.96120       -0.08020        0.04540
O         -0.40430        0.73540        0.69140
C         -0.07510        1.10840        2.03680
O          0.45650        0.00850       -1.58030
C          0.66850        1.33090       -2.04070
O          0.77980       -1.27530        1.28800
C          0.80970       -2.60480        0.84760
Ag         3.42120       -0.08020        0.04540
Br         2.66220       -1.97250       -1.47940
C          3.39620        1.63640        1.21380
C          2.64730        2.71440        0.97030
C          5.57120       -0.08020        0.04540
N          6.47750        0.94100        0.26310
C          6.27100        2.40970        0.25330
C          5.85550        2.95090       -1.16500
C          5.54390        4.45850       -1.10200
C          6.73420        5.25660       -0.52960
C          7.17610        4.68460        0.81650
C          7.52450        3.19740        0.68120
C          7.68650        0.32300        0.24220
C          7.54490       -1.02210       -0.00160
N          6.23940       -1.26730       -0.16230
C          5.55020       -2.49590       -0.53260
C          5.66180       -2.58490       -2.07650
C          6.71590       -3.58360       -2.54400
C          6.27380       -4.96620       -2.06390
C          6.39090       -5.02850       -0.53340
C          5.55700       -3.92480        0.15440
H         -0.35540        2.15370        2.25920
H          1.00980        1.05260        2.31460
H         -0.57980        0.42020        2.74920
H          0.17550        1.42780       -3.03100
H          1.74630        1.52830       -2.17430
H          0.17570        2.08800       -1.39090
H          0.19610       -3.21800        1.54270
H          1.84730       -2.98650        0.94830
H          0.36760       -2.75560       -0.15840
H          4.00260        1.62220        2.11350
H          1.97790        2.76320        0.12360
H          2.67750        3.55180        1.66340
H          5.51850        2.67480        0.98640
H          4.95900        2.43330       -1.56320
H          6.68260        2.79030       -1.89720
H          4.66160        4.61820       -0.44330
H          5.29900        4.86610       -2.10840
H          6.45110        6.32890       -0.40280
H          7.58780        5.20940       -1.23750
H          6.35540        4.79810        1.56530
H          8.06020        5.23840        1.19160
H          7.86500        2.81370        1.66310
H          8.34830        3.07640       -0.06200
H          8.64650        0.82560        0.33450
H          8.34090       -1.75300       -0.09230
H          4.59230       -2.23340       -0.11650
H          5.86060       -1.57490       -2.49200
H          4.74180       -2.94900       -2.54640
H          7.72700       -3.33010       -2.13950
H          6.74990       -3.55580       -3.64490
H          6.90790       -5.74940       -2.52400
H          5.22360       -5.15640       -2.39800
H          7.45320       -4.93230       -0.25030
H          6.02680       -6.03210       -0.19920
H          5.65140       -3.92970        1.25470
H          4.51190       -4.32440       -0.03700
