29

N         -1.44510       -0.03530       -0.04550
C         -0.68020        0.70020       -0.91390
C          0.72420        0.67920       -0.81550
C          1.33600       -0.05000        0.20540
F          2.69090       -0.09760        0.30240
C          0.54480       -0.73630        1.12160
C         -0.84830       -0.73650        0.96200
Ag        -3.47560       -0.20170       -0.28210
Br        -3.73320        1.86250        1.26090
C         -3.26190       -1.91530       -1.56290
C         -2.10240       -2.43470       -1.97380
N         -5.51780       -0.30020       -0.54130
C         -6.13630       -1.51510       -0.67000
C         -7.50860       -1.61850       -0.89100
C         -8.26030       -0.46150       -1.03770
F         -9.58670       -0.54520       -1.30760
C         -7.64080        0.78000       -0.89980
C         -6.26730        0.84460       -0.61770
H         -1.14360        1.24750       -1.72040
H          1.33990        1.20930       -1.53100
H          1.01200       -1.27880        1.93710
H         -1.45370       -1.28210        1.67130
H         -4.12390       -2.45690       -1.91060
H         -1.14080       -2.04200       -1.67960
H         -2.12260       -3.33020       -2.59450
H         -5.59700       -2.43310       -0.51180
H         -7.98020       -2.59280       -0.94780
H         -8.21990        1.68450       -1.02240
H         -5.80070        1.81420       -0.54880
