45

N         -0.65900       -1.22800       -0.05100
C          0.66810       -1.07240        0.27500
Cl         1.68120       -2.44160        0.73670
C          1.20210        0.20510        0.47750
C          0.39190        1.32450        0.31750
C         -0.95600        1.15680        0.01300
C         -1.47120       -0.13380       -0.12590
Ag        -1.57560       -3.10440       -0.27260
Br        -3.52060       -2.33460        1.25470
C          0.03890       -3.74340       -1.54040
C          1.03470       -3.02420       -2.07240
P         -2.64940       -5.30240       -0.53210
C         -4.11310       -6.23520        0.05040
C         -3.55490       -4.97390       -2.08840
C         -3.24540       -5.73760       -3.22580
C         -4.00420       -5.65510       -4.38710
C         -5.07860       -4.77830       -4.44670
C         -5.38500       -3.97560       -3.33910
C         -4.62570       -4.06870       -2.16360
C         -1.41340       -6.64170       -0.66390
C         -0.14460       -6.50340       -0.07700
C          0.79750       -7.53720       -0.15730
C          0.47540       -8.73340       -0.80230
C         -0.79510       -8.90640       -1.34810
C         -1.73460       -7.87520       -1.27580
H          2.23170        0.32810        0.78950
H          0.79730        2.31690        0.46010
H         -1.59990        2.01800       -0.10790
H         -2.51550       -0.25620       -0.37140
H          0.02200       -4.77020       -1.86590
H          1.15830       -1.96600       -1.92440
H          1.75590       -3.50990       -2.72200
H         -4.99650       -5.56140        0.09480
H         -3.91180       -6.53470        1.10240
H         -4.36000       -7.13100       -0.54310
H         -2.43810       -6.45370       -3.22650
H         -3.77170       -6.30020       -5.22990
H         -5.67690       -4.73020       -5.34640
H         -6.21790       -3.29320       -3.40030
H         -4.90250       -3.46310       -1.31130
H          0.12230       -5.58940        0.43750
H          1.77650       -7.41210        0.28370
H          1.20050       -9.53390       -0.86080
H         -1.05760       -9.83960       -1.83130
H         -2.71090       -8.05620       -1.69990
