37

N         -0.65900       -1.22800       -0.05100
C          0.56260       -0.98440       -0.60780
F          1.19260       -1.94970       -1.32020
C          1.22260        0.22360       -0.35260
C          0.59880        1.19350        0.43350
C         -0.65850        0.93700        0.97740
C         -1.25980       -0.30210        0.74850
Ag        -1.57560       -3.10440       -0.27260
Br        -1.89140       -3.31170        2.17950
C         -1.34230       -2.98680       -2.36120
C         -1.74170       -3.92610       -3.23160
N         -2.49230       -4.98070       -0.49410
C         -1.99750       -6.18660       -0.17560
N         -2.87080       -7.16960       -0.50330
C         -2.64020       -8.59840       -0.50300
C         -1.33950       -9.11820       -0.32820
C         -1.10390      -10.49350       -0.41350
C         -2.15770      -11.37140       -0.66800
C         -3.44980      -10.87600       -0.84130
C         -3.69150       -9.50220       -0.76600
C         -3.99030       -6.53370       -0.92170
C         -3.73450       -5.18400       -0.96140
H          2.21520        0.40200       -0.74570
H          1.09250        2.13630        0.63190
H         -1.15640        1.68380        1.58270
H         -2.23020       -0.51240        1.17720
H         -0.87350       -2.10150       -2.77030
H         -2.21510       -4.84890       -2.94020
H         -1.60100       -3.77520       -4.29610
H         -0.98500       -6.33130        0.17460
H         -0.49200       -8.47120       -0.15610
H         -0.09890      -10.87730       -0.29350
H         -1.97210      -12.43500       -0.73870
H         -4.26680      -11.55570       -1.04580
H         -4.70300       -9.16020       -0.92340
H         -4.91960       -6.99700       -1.21840
H         -4.42430       -4.39920       -1.24250
