33

N         -1.41070       -0.06880       -0.09130
C         -0.78750        1.17870       -0.11140
C          0.61300        1.28680       -0.06580
F          1.21570        2.50110       -0.08670
C          1.38780        0.13290       -0.00380
C          0.76180       -1.10280       -0.03390
C         -0.62680       -1.16690       -0.13000
Ag        -3.47560       -0.20170       -0.28210
Br        -3.40400        1.91630       -1.77100
C         -3.53520       -1.95990        0.95390
C         -2.56250       -2.60030        1.63430
N         -5.53670       -0.32480       -0.39080
C         -6.12980       -0.93500       -1.50800
O         -5.36170       -1.53460       -2.45970
C         -5.85150       -2.14690       -3.61240
C         -7.53430       -0.85250       -1.68870
C         -8.31150       -0.12250       -0.80650
C         -7.69870        0.54220        0.24710
C         -6.30520        0.45620        0.41080
H         -1.35240        2.09770       -0.13540
H          2.46860        0.18810        0.04120
H          1.34540       -2.01470       -0.01150
H         -1.06150       -2.13600       -0.26570
H         -4.51960       -2.39020        1.10970
H         -1.53330       -2.31240        1.71710
H         -2.78370       -3.48050        2.22180
H         -5.01390       -2.46320       -4.26590
H         -6.49440       -1.46190       -4.21950
H         -6.44570       -3.04400       -3.33850
H         -8.03940       -1.31230       -2.53220
H         -9.38350       -0.04620       -0.96650
H         -8.30400        1.13790        0.91620
H         -5.84630        1.00420        1.22290
