38

N         -1.38440       -0.30340        0.11830
C         -0.93550       -0.14540        1.42020
C          0.40210        0.04700        1.78340
Cl         0.86180        0.26280        3.47490
C          1.35180        0.17380        0.79650
C          0.93850        0.09700       -0.52790
C         -0.41370       -0.16220       -0.85570
Ag        -3.46290       -0.21240       -0.28480
Br        -3.64180        1.31000        1.67040
C         -3.24530       -1.57330       -1.93520
C         -2.40280       -2.58020       -2.20140
N         -5.52390       -0.12820       -0.72880
C         -5.27130        0.88250       -1.80680
C         -6.38930        0.65240        0.16560
C         -6.23930       -1.25280       -1.43270
C         -5.90550       -2.62620       -1.33910
C         -6.25550       -3.50670       -2.39700
C         -7.01050       -3.06960       -3.48930
C         -7.51880       -1.79400       -3.48510
C         -7.17900       -0.92850       -2.46900
H         -1.57010        0.02170        2.25270
H          2.38360        0.39180        1.06180
H          1.66910        0.27740       -1.30380
H         -0.65420       -0.13460       -1.88950
H         -3.77440       -1.39640       -2.86380
H         -1.59940       -2.93890       -1.58570
H         -2.48050       -3.10790       -3.15270
H         -4.58920        1.72740       -1.78970
H         -6.13100        1.43080       -2.22200
H         -4.65080        0.36380       -2.55410
H         -5.84570        1.13720        0.98540
H         -7.00250       -0.05020        0.74250
H         -7.14230        1.30970       -0.33460
H         -5.28200       -3.01120       -0.55090
H         -5.88650       -4.52190       -2.41500
H         -7.21990       -3.70580       -4.34000
H         -8.12800       -1.42220       -4.30460
H         -7.59830        0.03870       -2.64860
