83

N         -0.65900       -1.22800       -0.05100
C         -1.09960        0.09860       -0.42640
Cl        -2.47820        0.70320       -1.37910
C         -0.32400        1.27480       -0.21810
C          0.95690        1.20800        0.23540
C          1.37270        0.00320        0.70030
C          0.49050       -1.09560        0.67190
Ag        -1.57560       -3.10440       -0.27260
Br        -3.70950       -0.59090        0.80210
C          1.20550       -3.20430       -0.61360
C          2.29600       -3.14670        0.31170
C         -2.51410       -5.02540       -0.49940
N         -2.03560       -6.35230       -0.04560
C         -0.82650       -7.06100        0.64770
C          0.20840       -6.24980        0.99270
C         -0.06870       -5.00600        0.62560
C         -0.07000       -5.22860       -1.13640
C         -1.00110       -4.45230        1.79810
C          1.42350       -6.54610        1.61040
C          1.67910       -7.82640        1.94600
C          0.72390       -8.76930        1.64110
C         -0.52410       -8.45520        0.98730
C         -1.39110       -9.64740        0.65950
C         -1.20490       -9.90510       -0.85240
C         -1.05900      -10.94840        1.41620
C         -2.96300       -7.19150       -0.43700
C         -3.97340       -6.59040       -1.02630
N         -3.85800       -5.26830       -1.01210
C         -4.96660       -4.44020       -1.56260
C         -6.29700       -4.89400       -2.03560
C         -6.80840       -6.33360       -2.10850
C         -7.10560       -6.82560       -0.66880
C         -8.04020       -6.58650       -2.98580
C         -7.22570       -3.90180       -2.45890
C         -6.91790       -2.56200       -2.50200
C         -5.67640       -2.13760       -2.15640
C         -4.75540       -3.06730       -1.69330
C         -3.52680       -2.57970       -1.23240
C         -3.65230       -3.08550        0.42710
C         -2.44620       -2.78800       -2.38270
H         -0.68470        2.26860       -0.46950
H          1.58470        2.09380        0.28180
H          2.36250       -0.07070        1.13430
H          0.72160       -1.88210        1.26820
H          1.65930       -3.74950       -1.40860
H          2.26230       -3.01300        1.41020
H          3.29210       -3.50820        0.07590
H          0.65150       -4.42850        1.09600
H         -0.64040       -5.98670       -1.70790
H          0.87270       -5.55900       -1.61030
H         -0.42500       -4.33570       -1.70420
H         -2.04880       -4.46500        1.68380
H         -1.75030       -5.16300        2.18780
H         -0.52140       -4.45310        2.81030
H          2.16780       -5.78330        1.81070
H          2.62550       -8.07340        2.41520
H          1.01920       -9.75600        1.90840
H         -2.41580       -9.45230        1.03020
H         -0.12210      -10.03800       -1.06140
H         -1.49980       -9.06460       -1.51100
H         -1.75790      -10.80780       -1.17130
H         -0.07630      -11.35510        1.11590
H         -1.82350      -11.71480        1.18650
H         -1.08040      -10.75040        2.51310
H         -3.06050       -8.26780       -0.41730
H         -4.70190       -7.22510       -1.40300
H         -6.09360       -6.94900       -2.70000
H         -7.78250       -6.09630       -0.18270
H         -6.23140       -6.88630        0.00930
H         -7.57410       -7.82820       -0.67960
H         -8.94260       -6.11120       -2.58690
H         -8.22790       -7.67480       -3.06020
H         -7.81670       -6.21760       -4.02210
H         -8.22990       -4.12610       -2.73300
H         -7.65220       -1.83920       -2.79450
H         -5.43770       -1.08370       -2.20110
H         -3.49620       -1.53000       -1.36400
H         -4.42890       -3.68470        0.91640
H         -2.93750       -2.77350        1.24960
H         -2.82720       -2.71680        1.12060
H         -2.27120       -3.82780       -2.69270
H         -1.46060       -2.31040       -2.17810
H         -2.77230       -2.27850       -3.32280
