88

N         -1.39000       -0.11200       -0.05400
C         -0.88300       -0.06950        1.20810
C          0.48320        0.14090        1.42480
C          1.32440        0.36260        0.32910
C          2.79290        0.60660        0.51620
C          0.77440        0.38710       -0.95820
C         -0.59290        0.16330       -1.12490
Ag        -3.47560       -0.20170       -0.28210
Br        -3.70800        2.06370        0.95160
C         -3.28270       -2.08230       -1.30620
C         -2.14370       -2.44930       -1.94750
C         -5.61100       -0.29360       -0.51560
N         -6.54730        0.72360       -0.60890
C         -6.53530        2.28010       -0.63550
C         -7.68380        3.24780       -0.51700
C         -9.19170        3.05980       -0.80820
C         -9.39380        2.64430       -2.28330
C        -10.03120        2.41700        0.27180
C         -7.47090        4.64470       -0.28370
C         -6.21850        5.21500       -0.28260
C         -5.20840        4.44420       -0.69260
C         -5.36230        3.05350       -0.97170
C         -4.30090        2.46400       -1.85380
C         -5.01560        2.55660       -3.21040
C         -2.90570        3.19230       -1.79580
C         -7.80280        0.01980       -0.50110
C         -7.50790       -1.40900       -0.94510
N         -6.17610       -1.72610       -0.49220
C         -5.90400       -3.08350        0.27620
C         -4.85090       -4.25330        0.10440
C         -3.57290       -4.53720       -0.74450
C         -2.35200       -4.13640        0.22600
C         -3.10390       -5.78790       -1.57320
C         -4.89390       -5.41400        0.89380
C         -5.82470       -5.64630        1.80600
C         -6.78430       -4.73500        2.03840
C         -6.88370       -3.49110        1.31930
C         -8.08750       -2.69360        1.85710
C         -9.43410       -3.33390        1.42200
C         -8.10430       -2.58090        3.40970
H         -1.54520       -0.21220        2.05340
H          0.86950        0.14620        2.43540
H          3.08170        0.56940        1.58840
H          3.06170        1.60620        0.11340
H          3.37090       -0.16860       -0.02890
H          1.39230        0.59510       -1.82130
H         -1.02620        0.22830       -2.11530
H         -4.25700       -2.40760       -1.55190
H         -1.18980       -2.00850       -1.78600
H         -2.13990       -3.23640       -2.68750
H         -9.69160        4.06350       -0.84290
H         -8.93140        1.69740       -2.59230
H         -8.89190        3.40190       -2.93030
H        -10.46960        2.61730       -2.55730
H         -9.82000        1.36650        0.45710
H        -11.10160        2.51600       -0.01520
H         -9.88370        2.99680        1.21270
H         -8.24890        5.37380       -0.16570
H         -6.08180        6.28430       -0.11880
H         -4.29390        4.99880       -0.85870
H         -4.12150        1.40760       -1.62360
H         -5.35360        3.60820       -3.39820
H         -5.97220        1.95740       -3.16110
H         -4.42920        2.18700       -4.05050
H         -2.85470        4.13790       -2.37310
H         -2.63290        3.54130       -0.78270
H         -2.07290        2.47820       -1.95230
H         -8.60220        0.38670       -1.12490
H         -8.10310        0.12170        0.55390
H         -7.47190       -1.39240       -2.05730
H         -8.28590       -2.12970       -0.70510
H         -3.90900       -4.24180       -1.74840
H         -2.56410       -4.38590        1.28560
H         -2.19990       -3.06670        0.46660
H         -1.35630       -4.46010       -0.13760
H         -2.59230       -6.56100       -0.98510
H         -2.30410       -5.43760       -2.29160
H         -3.87340       -6.23980       -2.25020
H         -4.16900       -6.22210        0.80560
H         -5.79920       -6.56300        2.38230
H         -7.49660       -5.03780        2.74890
H         -8.02690       -1.67260        1.51220
H         -9.53450       -4.35880        1.80330
H         -9.55910       -3.39410        0.32620
H        -10.28500       -2.72700        1.81220
H         -8.32860       -3.54060        3.91540
H         -8.92360       -1.90190        3.73110
H         -7.13740       -2.20300        3.79650
