67

N         -1.41900       -0.25350        0.07680
C         -0.97290       -0.40670        1.33740
C          0.38530       -0.27990        1.61090
C          1.27940        0.02180        0.57230
C          2.73270        0.24030        0.86980
C          0.79270        0.16100       -0.73560
C         -0.57680        0.02550       -0.96410
Ag        -3.38550       -0.19280       -0.26950
Br        -3.14700       -2.67800       -0.13700
C         -3.34010        1.87100       -0.00130
C         -2.94720        2.53180        1.10330
P         -5.88580       -0.12550       -0.64080
C         -6.79870        1.56500       -0.69100
C         -6.36990        2.43170       -1.91440
C         -8.32510        1.54270       -0.72020
C         -6.40930        2.40060        0.55590
C         -6.28970       -1.23710       -2.15770
C         -5.84760       -2.69950       -2.00480
C         -7.80260       -1.36400       -2.40610
C         -5.60770       -0.72880       -3.43880
C         -6.57810       -1.04690        0.88620
C         -5.75870       -1.60130        1.88890
C         -6.28740       -2.36800        2.95570
C         -7.68060       -2.61120        3.10210
N         -8.23350       -3.44110        4.17210
C         -7.40970       -4.10030        5.18190
C         -9.66140       -3.73640        4.31200
C         -8.50250       -2.02380        2.12070
C         -7.96860       -1.29130        1.05440
H         -1.68500       -0.57460        2.13450
H          0.72970       -0.37800        2.62870
H          2.94400        0.10220        1.95130
H          3.00090        1.28590        0.60820
H          3.36940       -0.45840        0.29020
H          1.45560        0.39930       -1.56050
H         -0.98040        0.16510       -1.96170
H         -3.81050        2.49350       -0.71320
H         -2.64320        2.03920        2.01790
H         -3.13640        3.61260        1.14950
H         -6.58880        1.97450       -2.88130
H         -5.32560        2.74200       -1.93530
H         -6.91410        3.39810       -1.91460
H         -8.72450        1.19040       -1.67410
H         -8.70700        2.58080       -0.62170
H         -8.75980        1.02600        0.13130
H         -5.38770        2.58720        0.58460
H         -6.58000        1.94270        1.54580
H         -6.74860        3.45580        0.49520
H         -6.37780       -3.25360       -1.19650
H         -4.78680       -2.73470       -1.93080
H         -5.99680       -3.27020       -2.94810
H         -8.32080       -1.74950       -1.51420
H         -8.00860       -2.10970       -3.20190
H         -8.25400       -0.43820       -2.76650
H         -4.50360       -0.71240       -3.32300
H         -5.96440        0.25070       -3.76460
H         -5.84810       -1.40920       -4.28350
H         -4.69180       -1.48310        1.84900
H         -5.55880       -2.76880        3.63460
H         -6.33160       -3.92020        5.10620
H         -7.54790       -5.20100        5.11260
H         -7.71700       -3.76410        6.19540
H        -10.32780       -3.26370        3.58140
H        -10.02080       -3.40830        5.31080
H         -9.82560       -4.83180        4.21390
H         -9.57600       -2.12110        2.11080
H         -8.71310       -0.96020        0.36910
