68

P          1.01750        0.07640       -0.06210
O         -0.13150       -0.94450        0.71350
C          0.27050       -2.28100        0.38060
C         -0.43910       -3.35160        1.18720
O          0.56110        1.58920        0.58830
C          0.72480        1.62800        1.97720
C          0.12510        2.94090        2.46900
O          0.53820       -0.35880       -1.65980
C         -0.88000       -0.15690       -1.77450
C         -1.43590       -0.81150       -3.02760
Ag         3.47750        0.07640       -0.06210
Br         3.30870        1.99500       -1.63570
C          3.37870       -1.39390        1.39030
C          3.08100       -1.13900        2.66650
P          5.93750        0.07640       -0.06210
C          6.81520        0.83810        1.43650
C          6.46820        0.12670        2.76280
C          8.34870        0.85290        1.31640
C          6.23540        2.27130        1.63470
C          6.46110       -1.67130        0.13190
C          7.22370       -2.15800       -0.95170
C          7.65260       -3.48390       -1.00770
C          7.32490       -4.36550        0.01360
C          6.58520       -3.91110        1.11010
C          6.16110       -2.57460        1.17480
C          6.32940        1.05830       -1.56690
C          7.12400        2.22210       -1.62670
C          7.37630        2.84750       -2.86100
C          6.85880        2.30690       -4.04150
C          6.09350        1.14460       -3.99310
C          5.83670        0.52350       -2.77190
H          1.34160       -2.46110        0.57070
H          0.07590       -2.51170       -0.68680
H         -0.20940       -3.24970        2.26720
H         -0.06740       -4.34840        0.84890
H         -1.53020       -3.30530        1.00690
H          1.80190        1.63300        2.23100
H          0.17970        0.80080        2.48430
H          0.63640        3.79720        1.97760
H          0.24360        3.03420        3.56820
H         -0.95710        2.98610        2.21790
H         -1.13500        0.92290       -1.76100
H         -1.47860       -0.66240       -0.98820
H         -1.01740       -0.33450       -3.93250
H         -2.54610       -0.70030       -3.03430
H         -1.20700       -1.89980       -3.02500
H          3.56420       -2.41750        1.08830
H          2.88100       -0.13360        3.01020
H          3.03990       -1.95220        3.38500
H          6.93480       -0.86550        2.84760
H          5.37310        0.06920        2.90530
H          6.87290        0.69020        3.63260
H          8.74120       -0.18300        1.28660
H          8.78720        1.36550        2.20380
H          8.71520        1.37780        0.42360
H          5.12810        2.22330        1.74120
H          6.41590        2.99100        0.83140
H          6.63840        2.74770        2.55530
H          7.48640       -1.50950       -1.77810
H          8.23220       -3.83190       -1.85740
H          7.64610       -5.40010       -0.03480
H          6.32950       -4.60030        1.90570
H          5.58860       -2.29830        2.03880
H          7.58020        2.69340       -0.79060
H          7.98220        3.73960       -2.90060
H          7.06200        2.78910       -4.98850
H          5.70380        0.72240       -4.91120
H          5.24590       -0.38250       -2.76430
