81

P          0.92860        0.00030       -0.07000
O         -0.23140        1.05210        0.65030
C          0.11620        1.11390        2.04600
C         -0.56140        2.25510        2.78590
O          0.48510        0.11320       -1.71610
C          0.59410        1.42330       -2.19610
C         -0.01170        1.44930       -3.60070
O          0.43650       -1.37600        0.84650
C         -0.97640       -1.55570        0.66140
C         -1.55280       -2.52790        1.67720
Ag         3.38860        0.00030       -0.07000
Br         3.38860       -2.24610       -1.35920
C          3.38860        1.86500        1.00020
C          2.53380        2.88210        0.84380
C          5.53860        0.00030       -0.07000
N          6.30150       -1.11340       -0.21770
C          5.98090       -2.55360       -0.15070
C          6.61050       -3.60360       -0.97700
C          7.80560       -3.54230       -1.92730
C          6.09380       -4.92430       -0.95180
C          5.04710       -5.29390       -0.13770
C          4.45200       -6.67040       -0.24180
C          4.56730       -4.37720        0.78270
C          5.03860       -3.05090        0.82330
C          4.48550       -2.21890        1.94700
C          7.69840       -0.77380       -0.12370
C          7.75270        0.69710       -0.25430
N          6.46850        1.16000        0.18140
C          6.32710        2.60830        0.28320
C          5.29770        3.28890       -0.41410
C          4.49230        2.58030       -1.49590
C          5.04480        4.65060       -0.18750
C          5.85050        5.42500        0.65130
C          5.53920        6.87650        0.90030
C          6.95800        4.84830        1.22270
C          7.23790        3.45000        1.04710
C          8.54800        3.01900        1.73900
H          1.20410        1.24810        2.21920
H         -0.17280        0.18710        2.57810
H         -0.27590        3.23800        2.35970
H         -0.23030        2.23140        3.85120
H         -1.66110        2.12390        2.76330
H          1.66020        1.71640       -2.26400
H          0.01590        2.14240       -1.57640
H          0.51430        0.72330       -4.25520
H          0.07380        2.46290       -4.03810
H         -1.08730        1.16650       -3.55500
H         -1.20700       -1.89580       -0.36900
H         -1.58600       -0.65080        0.86560
H         -1.12670       -3.53600        1.53220
H         -2.65970       -2.57510        1.54570
H         -1.35380       -2.16840        2.71120
H          4.14280        1.95500        1.77520
H          1.74180        2.85860        0.11070
H          2.63520        3.75640        1.48250
H          8.37040       -2.63590       -2.10400
H          7.51600       -3.88910       -2.93940
H          8.56430       -4.26750       -1.53640
H          6.52100       -5.67400       -1.61580
H          4.95830       -7.28900       -1.01580
H          3.38390       -6.58380       -0.54220
H          4.51270       -7.19750        0.72980
H          3.79590       -4.70100        1.47230
H          3.38490       -2.12430        1.86090
H          4.95830       -1.22870        2.03830
H          4.72020       -2.75650        2.89440
H          8.37960       -1.13690       -0.88310
H          8.06350       -1.09690        0.87530
H          7.82910        0.97780       -1.33520
H          8.65020        1.02660        0.26040
H          4.02960        1.64220       -1.21600
H          5.14400        2.25840       -2.32810
H          3.66120        3.22260       -1.84960
H          4.22310        5.13360       -0.68450
H          4.57020        7.15790        0.44170
H          6.32770        7.53410        0.47930
H          5.45630        7.07330        1.99310
H          7.63680        5.46810        1.81460
H          9.05300        3.84440        2.29560
H          9.32870        2.78560        0.98760
H          8.40440        2.18820        2.45020
