37

N         -0.67900        1.19300        0.00100
C         -1.12100        0.15840       -0.78970
F         -2.27930        0.24060       -1.48320
C         -0.47890       -1.07930       -0.77820
C          0.64810       -1.25730        0.01370
F          1.29000       -2.45150        0.01800
C          1.09900       -0.21160        0.80820
C          0.40430        1.00290        0.81550
F          0.89840        2.01790        1.56020
Ag        -1.69140        3.03290        0.00550
Br        -1.38640        3.39980        2.45780
C         -1.98900        2.84660       -2.09430
C         -2.38100        3.84790       -2.90060
N         -2.70380        4.87270        0.01000
C         -3.89260        5.21090       -0.54150
N         -4.27030        6.45740       -0.14990
C         -5.56820        7.10010       -0.24220
C         -6.73650        6.33740       -0.46420
C         -8.00250        6.93880       -0.41360
C         -8.12300        8.30500       -0.15370
C         -6.98070        9.07320        0.06400
C         -5.71640        8.47830        0.03050
C         -3.21860        6.95640        0.53170
C         -2.30310        5.95120        0.70290
H         -0.87180       -1.89650       -1.36950
H          1.98620       -0.33420        1.41650
H         -1.67640        1.96670       -2.63360
H         -2.63120        4.83190       -2.54410
H         -2.39370        3.70210       -3.96170
H         -4.53050        4.50250       -1.05600
H         -6.68550        5.26970       -0.62620
H         -8.89580        6.34330       -0.55700
H         -9.10140        8.76800       -0.10790
H         -7.07400       10.13060        0.27760
H         -4.86190        9.10610        0.23140
H         -3.13640        7.94550        0.95680
H         -1.36020        6.03080        1.22650
