47

P          1.07250        0.06400        0.02550
N          0.12830       -1.28840       -0.62110
C         -1.31620       -1.10570       -0.65950
C          0.67750       -1.66450       -1.93960
O          0.65330       -0.24520        1.64670
C          0.95020        0.89900        2.39830
O          0.65380        1.13790       -1.24090
C          0.58510        2.46190       -0.76840
Ag         3.53250        0.06400        0.02550
Br         3.53250       -2.12060        1.41680
C          3.53250        1.87740       -1.12950
C          3.70700        3.08700       -0.60090
P          5.99250        0.06400        0.02550
N          7.06260        0.00010       -1.41570
C          6.69230        0.91420       -2.49900
C          8.50390       -0.14760       -1.20520
O          6.26410        1.74850        0.04270
C          6.53250        2.17020        1.35970
O          6.46820       -1.43710        0.70220
C          6.27040       -2.47880       -0.25440
H         -1.69210       -0.86530        0.35430
H         -1.78220       -2.07120       -0.96300
H         -1.60560       -0.32410       -1.39060
H          1.78420       -1.78880       -1.88190
H          0.45810       -0.89440       -2.71180
H          0.26370       -2.63730       -2.27630
H          0.74030        0.67240        3.46360
H          0.28680        1.74440        2.11670
H          2.02950        1.16260        2.33290
H          1.01550        3.11810       -1.55560
H          1.18260        2.65830        0.14720
H         -0.46720        2.76340       -0.60500
H          3.38790        1.78690       -2.20100
H          3.84480        3.21290        0.46310
H          3.70120        3.96030       -1.24680
H          5.58710        0.93790       -2.62720
H          7.10720        0.56030       -3.46050
H          7.05690        1.94840       -2.30600
H          8.69830       -1.02370       -0.55840
H          8.93870        0.76700       -0.78160
H          8.97430       -0.38280       -2.18810
H          7.39950        2.86210        1.33320
H          6.80060        1.36170        2.07680
H          5.65760        2.72250        1.75420
H          7.23550       -2.97380       -0.48980
H          5.80000       -2.17380       -1.22130
H          5.60820       -3.26070        0.16130
