61

P          0.93240        0.05430       -0.04980
C         -0.01060       -0.24360        1.56710
C          0.35610        0.67170        2.74910
C         -0.62600        0.22510        3.82180
C         -1.91790        0.23750        3.03810
C         -1.55810       -0.35490        1.66070
C          0.43410        1.83490       -0.37080
C          0.84230        2.44910       -1.70590
C         -0.01920        3.71610       -1.74370
C         -1.38360        3.15070       -1.42570
C         -1.10060        2.07160       -0.37610
C          0.22520       -1.38570       -0.97060
C          0.48790       -1.48800       -2.46720
C         -0.19240       -2.81650       -2.76630
C          0.38670       -3.70500       -1.67330
C          0.54990       -2.78640       -0.43900
Ag         3.39240        0.05430       -0.04980
Br         3.26430        0.38820       -2.52420
C          3.45220       -0.32140        1.97510
C          3.73550       -1.55760        2.38460
N          5.49240        0.05430       -0.04980
C          6.19120        0.02320       -1.23980
C          7.58720       -0.04880       -1.26210
C          8.29990       -0.04810       -0.07480
F          9.65820       -0.11450       -0.09740
C          7.61550        0.01780        1.12460
C          6.21550        0.05660        1.12370
H          0.35190       -1.23760        1.91800
H          0.17820        1.73730        2.49810
H          1.37170        0.56360        3.13870
H         -0.63660        0.88320        4.71720
H         -0.39060       -0.81510        4.14520
H         -2.14870        1.32020        2.89570
H         -2.79290       -0.22220        3.53950
H         -2.19020        0.18120        0.94850
H         -1.82840       -1.42790        1.58090
H          0.87900        2.49340        0.40730
H          0.53970        1.78050       -2.54590
H          1.92230        2.68310       -1.77400
H         -0.00400        4.26340       -2.70810
H          0.28470        4.40760       -0.92590
H         -1.71320        2.63330       -2.35800
H         -2.18760        3.87120       -1.16310
H         -1.66520        1.19670       -0.75120
H         -1.42430        2.38260        0.64190
H         -0.87730       -1.26000       -0.89580
H          1.56700       -1.61190       -2.67410
H          0.08110       -0.63860       -3.05760
H         -0.01930       -3.20250       -3.79570
H         -1.29420       -2.70520       -2.61760
H          1.41780       -3.96510       -2.01230
H         -0.15830       -4.65490       -1.49340
H          1.59830       -2.86470       -0.08910
H         -0.14740       -3.03920        0.38640
H          3.39350        0.48520        2.69100
H          3.88840       -2.34790        1.65380
H          3.86360       -1.78020        3.44010
H          5.71450       -0.01020       -2.18390
H          8.10400       -0.11410       -2.21540
H          8.16710        0.03090        2.06050
H          5.77210        0.10530        2.09650
