53

P          1.08410       -0.03270        0.04320
C          0.29290       -0.57330       -1.56030
C         -1.23520       -0.56760       -1.72040
C          0.89270        0.29050       -2.68490
C          0.65820       -1.28510        1.35840
C          1.26470       -0.82290        2.68710
C         -0.85030       -1.46390        1.57390
C          0.35970        1.63760        0.21190
Au         3.54410       -0.03270        0.04320
Br         3.42840       -2.51460        0.13470
C          3.33860        2.00140       -0.28170
C          3.70270        2.87570        0.65920
C          5.69410       -0.03270        0.04320
N          6.59210       -0.99450        0.48210
C          6.44580       -2.26700        1.18130
C          7.83990       -0.50160        0.22980
C          9.15710       -1.15070        0.57670
C          7.73110        0.71020       -0.37060
C          8.88280        1.56740       -0.84800
N          6.42350        1.01940       -0.48520
C          5.98990        2.19770       -1.25120
H          0.65030       -1.61050       -1.74280
H         -1.66750        0.43930       -1.57160
H         -1.75390       -1.29570       -1.09260
H         -1.48030       -0.89200       -2.75700
H          0.55290        1.34380       -2.61350
H          0.58760       -0.09180       -3.68200
H          2.00340        0.27160       -2.64470
H          1.04950       -2.28520        1.11660
H          0.82650        0.15040        2.99920
H          2.36470       -0.71610        2.60270
H          1.05080       -1.56940        3.48400
H         -1.35770       -0.49030        1.74430
H         -1.04150       -2.11860        2.45100
H         -1.30700       -2.00880        0.74080
H         -0.74700        1.53120        0.22960
H          0.63060        2.32250       -0.60920
H          0.65500        2.07430        1.18590
H          2.94060        2.35860       -1.22540
H          4.13230        2.52980        1.59270
H          3.61120        3.94260        0.47590
H          5.44800       -2.48600        1.53770
H          7.02360       -2.22240        2.12870
H          6.85800       -3.09730        0.56240
H          9.05710       -2.12940        1.07590
H          9.72480       -0.47800        1.25670
H          9.75000       -1.29750       -0.35080
H          9.86730        1.11800       -0.61480
H          8.83410        2.56500       -0.35730
H          8.83280        1.69450       -1.94840
H          6.79450        2.58450       -1.90070
H          5.78380        3.05580       -0.59160
H          5.20340        1.91700       -1.98060
