72

P          1.07610       -0.06180        0.01990
C          0.24490        1.60270        0.77170
C         -1.30580        1.59120        0.82160
C          0.70710        2.00580        2.20520
C          0.66210        2.87950        0.00120
C          0.62070       -0.11020       -1.89000
C          1.22460        0.93920       -2.86990
C          1.07700       -1.45900       -2.47860
C         -0.90620       -0.02530       -2.11310
C          0.33220       -1.45410        1.12440
C          0.33210       -1.84620        2.70100
C         -0.26690       -0.79660        3.62790
C         -0.54030       -3.11790        2.86450
C          1.68890       -2.18070        3.33810
Au         3.53610       -0.06180        0.01990
Br         3.53610        2.13740       -1.34820
C          3.53610       -1.88740        1.15560
C          3.21540       -3.07880        0.64240
N          5.63610       -0.06180        0.01990
C          6.28440       -1.26870        0.12560
C          7.67090       -1.37410       -0.00840
C          8.44440       -0.24100       -0.22360
C          7.83450        1.01240       -0.21540
C          8.60300        2.17920       -0.32530
C          8.00610        3.43640       -0.21280
C          6.64100        3.54040        0.10320
C          5.92250        4.85070        0.27130
O          4.74190        4.84520        0.59390
C          6.53130        6.20250        0.00270
C          5.90750        2.35560        0.22880
C          6.42170        1.07860       -0.04950
H         -1.68460        0.74240        1.40930
H         -1.79250        1.60510       -0.14470
H         -1.67180        2.52640        1.31300
H          0.08420        1.63330        3.01250
H          0.43270        3.06730        2.44540
H          1.80310        1.96440        2.37200
H          0.30980        2.91420       -1.02410
H          1.73200        3.07610        0.13170
H          0.20080        3.80080        0.43580
H          2.29340        0.76020       -3.05910
H          1.03830        1.99140       -2.63340
H          0.78200        0.84320       -3.88590
H          2.18400       -1.54100       -2.45480
H          0.77360       -1.53090       -3.55330
H          0.62340       -2.31450       -1.94770
H         -1.27140        1.00120       -1.97570
H         -1.46320       -0.76260       -1.50290
H         -1.16250       -0.21910       -3.18150
H          0.65930       -2.37640        0.60530
H         -0.74910       -1.36590        0.88550
H         -1.24170       -0.41440        3.26980
H          0.51140       -0.05500        3.81440
H         -0.42040       -1.19720        4.65290
H         -1.59200       -2.93010        2.56370
H         -0.55150       -3.45800        3.92650
H         -0.13820       -3.95820        2.25880
H          2.34190       -1.28610        3.29560
H          2.12770       -3.09410        2.91090
H          1.59090       -2.41360        4.42050
H          4.00600       -1.85060        2.13090
H          2.83450       -3.18500       -0.36330
H          3.35720       -3.97060        1.25050
H          5.74970       -2.19160        0.21870
H          8.14470       -2.34940        0.03110
H          9.51640       -0.33690       -0.33120
H          9.67180        2.12030       -0.48020
H          8.63650        4.30600       -0.31130
H          7.59040        6.16590       -0.29870
H          6.44230        6.83760        0.90830
H          5.96680        6.69190       -0.82190
H          4.90770        2.41930        0.60350
