64

P          0.99500        0.00880        0.09950
C          0.28440        0.65080       -1.45250
C         -1.06800        0.61670       -1.84840
C         -1.43390        1.02560       -3.14150
C         -0.46490        1.45290       -4.05410
F         -0.81840        1.81920       -5.31140
C          0.87470        1.47110       -3.68050
C          1.24040        1.07000       -2.39760
C          0.46770       -1.71050       -0.08580
C          0.83530       -2.46730       -1.21430
C          0.53630       -3.83400       -1.26190
C         -0.15680       -4.43660       -0.20400
F         -0.41760       -5.76700       -0.23620
C         -0.56890       -3.67130        0.89100
C         -0.25900       -2.31070        0.95260
C          0.24240        1.09420        1.34560
C         -1.16510        1.09920        1.47380
C         -1.80520        1.76240        2.51930
C         -1.04100        2.43000        3.47220
F         -1.65750        3.04330        4.51380
C          0.35810        2.42970        3.37410
C          1.00160        1.76450        2.31460
Au         3.45500        0.00880        0.09950
Br         3.45500        2.57730       -0.23360
C          3.45500       -2.12330        0.37600
C          4.40480       -3.02750        0.64810
C          5.60500        0.00880        0.09950
N          6.34700        0.91710        0.66020
C          5.89830        2.02190        1.49600
C          6.32870        1.90050        2.96080
C          7.75760        0.63110        0.47890
C          7.79550       -0.76070       -0.14370
N          6.42170       -1.00950       -0.49450
C          6.01950       -2.00470       -1.49940
C          6.60150       -1.76830       -2.89060
H         -1.84830        0.23960       -1.21870
H         -2.46990        0.98560       -3.44960
H          1.63720        1.77290       -4.38910
H          2.29340        1.05040       -2.16160
H          1.40950       -2.02000       -2.01450
H          0.86860       -4.43070       -2.09770
H         -1.10500       -4.13880        1.70720
H         -0.55280       -1.74150        1.82500
H         -1.78780        0.54090        0.80630
H         -2.88310        1.73340        2.59560
H          0.94200        2.91910        4.14190
H          2.08140        1.72940        2.28850
H          2.53550       -2.62480        0.41240
H          5.44440       -2.81610        0.79800
H          4.10520       -4.07020        0.77660
H          4.81610        1.97770        1.66020
H          6.23390        2.99060        1.07620
H          5.87250        0.98980        3.41530
H          5.92750        2.78020        3.51620
H          7.42320        1.88190        3.09240
H          8.32160        0.61720        1.43330
H          8.18000        1.40510       -0.20080
H          8.08380       -1.53450        0.60310
H          8.49200       -0.77410       -1.00580
H          4.92570       -1.99270       -1.65000
H          6.36380       -3.01050       -1.17550
H          6.21810       -0.82050       -3.32100
H          6.26640       -2.60270       -3.54870
H          7.70900       -1.77220       -2.89280
