42

P          1.04970       -0.02930        0.08170
C         -0.32370       -0.72570        1.05490
C          0.86640        1.64990        0.76560
C          0.37520       -0.28460       -1.56140
C         -0.59300        0.58430       -2.08500
C         -1.19330        0.30410       -3.31750
C         -0.83120       -0.84330       -4.02960
C          0.13140       -1.71300       -3.50940
C          0.73010       -1.43790       -2.27570
Au         3.50970       -0.02930        0.08170
Br         3.50970        1.28000       -2.15300
C          3.50970       -1.11620        1.93670
C          4.51580       -1.36260        2.78110
C          5.65970       -0.02930        0.08170
N          6.46350        1.01080       -0.24840
C          6.10040        2.40430       -0.48160
C          7.73000        0.54900       -0.15690
Cl         9.17920        1.51100       -0.42320
C          7.70210       -0.78200        0.17010
Cl         9.09870       -1.83860        0.28320
N          6.40920       -1.15050        0.30370
C          5.95430       -2.55540        0.34460
H         -1.31080       -0.30500        0.79530
H         -0.10500       -0.54670        2.13290
H         -0.32140       -1.82910        0.91650
H         -0.20740        1.93770        0.78830
H          1.40850        2.37540        0.12770
H          1.26850        1.68320        1.79840
H         -0.90570        1.45890       -1.53180
H         -1.95070        0.96790       -3.71360
H         -1.30330       -1.06430       -4.97870
H          0.40240       -2.60770       -4.05550
H          1.45460       -2.13330       -1.86960
H          2.52600       -1.43470        2.26570
H          5.52820       -1.03320        2.60610
H          4.31340       -1.90480        3.70050
H          5.01480        2.56410       -0.35150
H          6.43820        2.73000       -1.48510
H          6.59670        3.03660        0.28830
H          6.80760       -3.26010        0.28210
H          5.33190       -2.74830       -0.56830
H          5.37030       -2.87030        1.20180
