52

P          0.93960        0.04420        0.06630
C          0.14260       -0.29280       -1.52340
C         -1.23990       -0.43130       -1.72130
C         -1.73000       -0.78730       -2.98790
C         -0.84620       -1.01920       -4.05220
Cl        -1.45520       -1.50720       -5.62560
C          0.52630       -0.89140       -3.85680
C          1.01630       -0.51650       -2.60260
C          0.42350       -1.50450        0.90120
C          0.74470       -2.77710        0.38560
C          0.32470       -3.94760        1.04200
C         -0.43560       -3.86220        2.21120
Cl        -0.95570       -5.32460        3.03620
C         -0.77960       -2.60940        2.72230
C         -0.35870       -1.43950        2.07030
C          0.22470        1.69490        0.41780
C         -0.61830        2.41510       -0.45760
C         -1.28340        3.56900       -0.02210
C         -1.11620        4.03320        1.28430
Cl        -1.99500        5.45060        1.83540
C         -0.26390        3.35050        2.15410
C          0.39710        2.19300        1.72750
Au         3.39960        0.04420        0.06630
Br         3.35650        2.15120       -1.28970
C          3.43810       -1.60950        1.31670
C          3.48400       -1.45120        2.64620
N          5.49960        0.04420        0.06630
C          6.30230       -0.90260        0.70910
F          5.84530       -1.98510        1.36310
C          7.70050       -0.81150        0.72680
C          8.34310        0.22660        0.08740
C          7.58390        1.16050       -0.57960
C          6.19260        1.05330       -0.58270
H         -1.92800       -0.27730       -0.90240
H         -2.79360       -0.90090       -3.14390
H          1.21960       -1.07270       -4.67090
H          2.08850       -0.44340       -2.46930
H          1.32640       -2.87410       -0.52210
H          0.58330       -4.92150        0.64330
H         -1.37750       -2.54470        3.62400
H         -0.64630       -0.48420        2.48500
H         -0.81630        2.08810       -1.46310
H         -1.95640        4.08860       -0.69280
H         -0.14460        3.70290        3.17390
H          1.01090        1.65900        2.44250
H          3.31570       -2.60400        0.90870
H          3.55490       -0.46210        3.08230
H          3.43720       -2.31730        3.29790
H          8.28940       -1.55630        1.24750
H          9.42230        0.30610        0.10400
H          8.06870        1.98170       -1.09160
H          5.74860        1.84220       -1.12500
