77

P          1.04710        0.02910        0.08330
C          0.15770        1.79790        0.35150
C         -1.38810        1.79030        0.36990
C          0.56940        2.55270        1.65910
C          0.59400        2.84080       -0.70420
C          0.60700       -0.52180       -1.74980
C          1.19290        0.24570       -2.98520
C          1.07450       -1.96190       -1.96730
C         -0.92410       -0.51160       -1.99730
C          0.30750       -1.02640        1.50900
C          0.31030       -0.98490        3.13100
C         -0.23330        0.29400        3.75530
C         -0.59380       -2.14230        3.62180
C          1.65450       -1.20410        3.82300
Au         3.50710        0.02910        0.08330
Br         3.50710        1.78420       -1.82130
C          3.50710       -1.42790        1.66440
C          4.38100       -1.47960        2.67340
P          5.96710        0.02910        0.08330
C          7.31510       -0.93200        0.86420
C          6.50540        0.05050       -1.63210
C          7.29120        1.08650       -2.15930
C          7.77340        1.00160       -3.47060
C          7.46990       -0.11130       -4.26070
C          6.68310       -1.14180       -3.74140
C          6.20650       -1.06390       -2.43090
C          6.28400        1.61360        0.91470
C          5.22870        2.40460        1.35930
C          5.47490        3.61780        2.01620
C          6.79180        4.03950        2.23980
C          7.85600        3.25740        1.79830
C          7.60980        2.06070        1.13210
H         -1.77920        1.10910        1.14310
H         -1.86620        1.56310       -0.57720
H         -1.77020        2.81180        0.60260
H         -0.11630        2.38430        2.48460
H          0.32560        3.64200        1.61020
H          1.65520        2.51660        1.89440
H          0.26100        2.60360       -1.70820
H          1.67100        3.05270       -0.61710
H          0.13180        3.83990       -0.53060
H          2.26360        0.02640       -3.13330
H          1.00460        1.31890       -3.03740
H          0.74640       -0.12190       -3.93510
H          2.18310       -2.02310       -1.91910
H          0.77770       -2.32200       -2.98330
H          0.62720       -2.65510       -1.22850
H         -1.28550        0.50550       -2.16110
H         -1.48090       -1.04410       -1.20130
H         -1.17670       -0.99380       -2.96790
H          0.63520       -2.05420        1.25230
H         -0.77220       -1.00330        1.25330
H         -1.20030        0.59580        3.30750
H          0.57130        1.04630        3.72890
H         -0.39080        0.18000        4.84880
H         -1.63650       -2.02360        3.26530
H         -0.61660       -2.18180        4.73600
H         -0.20160       -3.12180        3.27150
H          2.33360       -0.36340        3.57210
H          2.04340       -2.21330        3.59120
H          1.56710       -1.17850        4.93080
H          2.82980       -2.25920        1.52620
H          5.11600       -0.71050        2.83320
H          4.34100       -2.32050        3.36510
H          7.19150       -1.98830        0.53900
H          7.18480       -0.92490        1.96680
H          8.33640       -0.61810        0.60170
H          7.55880        1.94400       -1.56160
H          8.39450        1.79210       -3.86970
H          7.85190       -0.17920       -5.27080
H          6.45550       -2.00790       -4.34990
H          5.61860       -1.88270       -2.03190
H          4.19750        2.09020        1.20450
H          4.65690        4.23510        2.35660
H          6.99030        4.97500        2.75010
H          8.87730        3.57310        1.96770
H          8.46430        1.49800        0.79790
