71

P          1.01800       -0.09410        0.02860
C          0.15810        0.59220       -1.63350
C         -1.38130        0.61900       -1.62740
C          0.61040        2.03180       -2.02740
C          0.59970       -0.19170       -2.89070
C          0.59810       -1.99610        0.14710
C          1.20950       -3.01650       -0.85200
C          1.07420       -2.48820        1.52630
C         -0.92170       -2.23910        0.08070
C          0.21990        1.00770        1.38810
C          0.18820        2.57930        1.78080
C         -0.34050        3.53420        0.70980
C         -0.74060        2.73400        3.01230
C          1.52360        3.17380        2.20380
Au         3.47800       -0.09410        0.02860
Br         3.47800       -1.50190       -2.14540
C          3.47800        1.07450        1.83330
C          4.25530        2.12860        2.09950
P          5.93800       -0.09410        0.02860
N          7.01860        1.28950        0.36900
C          8.43810        1.07130        0.32150
C          8.69720       -0.39740        0.15530
C         10.24090       -0.60620        0.18820
C          7.95820       -1.14150        1.35080
N          6.50370       -0.78260        1.54040
N          6.68180       -0.64190       -1.45360
C          8.13700       -0.84160       -1.24670
H         -1.77580        1.21910       -0.78970
H         -1.85930       -0.35390       -1.62970
H         -1.75120        1.09380       -2.57070
H         -0.04260        2.80200       -1.63930
H          0.37880        2.26220       -3.09960
H          1.69670        2.21600       -1.92140
H          0.30340       -1.22600       -2.89440
H          1.66970       -0.02880       -3.09890
H          0.11900        0.21590       -3.81930
H          2.28880       -3.17960       -0.67560
H          1.00640       -2.83910       -1.91660
H          0.78960       -4.03510       -0.69350
H          2.18200       -2.41460        1.59550
H          0.80970       -3.56600        1.66500
H          0.60990       -1.91790        2.34860
H         -1.28540       -2.15230       -0.95450
H         -1.48610       -1.58840        0.77840
H         -1.17110       -3.29520        0.33310
H          0.54450        0.50500        2.32190
H         -0.85270        0.75000        1.27660
H         -1.29740        3.19000        0.27280
H          0.46910        3.72830       -0.00940
H         -0.50580        4.55230        1.12320
H         -1.78140        2.43040        2.77720
H         -0.76840        3.79470        3.35860
H         -0.37240        2.12630        3.86610
H          2.19330        3.16290        1.32210
H          1.90180        2.64470        3.09930
H          1.44220        4.24140        2.49580
H          2.86400        0.67170        2.63030
H          4.89050        2.57100        1.35450
H          4.21820        2.57650        3.08900
H          6.79020        1.75400        1.27850
H          8.90880        1.44730        1.26330
H          8.87210        1.67210       -0.51200
H         10.65210       -0.25090        1.14600
H         10.70300        0.00050       -0.62570
H         10.49360       -1.66590        0.02930
H          8.48940       -0.91340        2.30190
H          8.04710       -2.23430        1.18240
H          6.36030       -0.11820        2.33690
H          6.51880        0.10850       -2.16680
H          8.68490       -0.28410       -2.04420
H          8.36360       -1.91410       -1.40370
