96

P          0.96430        0.09300       -0.00860
C          0.12790       -1.57870        0.06190
C         -1.30160       -1.74930        0.19860
C         -2.27220       -0.62140        0.33760
C         -1.88320       -3.04260        0.19500
C         -1.10510       -4.17050        0.05890
C         -1.70310       -5.54410       -0.02360
C          0.26000       -4.07180       -0.02750
C          0.89960       -2.80950       -0.02260
C          2.40100       -2.91790       -0.16760
C          0.36410        0.70460        1.72110
C          0.78840        0.04650        2.95460
C          1.70510       -1.13880        3.04450
C          0.44500        0.54190        4.22740
C         -0.31770        1.67730        4.38380
C         -0.66650        2.20410        5.75490
C         -0.76730        2.33600        3.25660
C         -0.46420        1.90500        1.93920
C         -1.12050        2.80620        0.89270
C          0.47330        0.72320       -1.72290
C         -0.37050        0.10080       -2.74160
C         -0.95700       -1.29220       -2.79160
C         -0.73800        0.83270       -3.89330
C         -0.29450        2.12500       -4.12420
C         -0.68040        2.86930       -5.37650
C          0.53880        2.72230       -3.19300
C          0.92760        2.05520       -2.01500
C          1.87290        2.80740       -1.10370
Au         3.42430        0.09300       -0.00860
Br         3.16620       -0.80440       -2.33110
C          3.41970        0.94930        1.93950
C          4.35630        1.12330        2.87100
P          5.88430        0.09300       -0.00860
N          7.18250       -0.50030       -1.14710
C          6.76050       -0.57240       -2.56890
C          8.26400       -1.46830       -0.87180
N          6.40040        1.79510       -0.24260
C          5.97100        2.43630       -1.49320
C          6.23210        2.70180        0.88680
N          6.30760       -0.74950        1.52150
C          5.90190       -2.16700        1.55980
C          7.64760       -0.49480        2.09970
H         -1.76660        0.33020        0.26910
H         -2.79210       -0.70280        1.31810
H         -3.01760       -0.66150       -0.47880
H         -2.95080       -3.13880        0.27830
H         -2.80570       -5.51430        0.04090
H         -1.30240       -6.18380        0.79270
H         -1.42130       -6.00700       -0.99960
H          0.85490       -4.96740       -0.13430
H          2.78410       -3.92460        0.11960
H          2.97230       -2.19150        0.40970
H          2.66590       -2.94700       -1.22470
H          2.08160       -1.42220        2.07350
H          1.20920       -1.99780        3.53220
H          2.59710       -0.87670        3.66540
H          0.80960        0.04170        5.12210
H         -0.21790        1.59060        6.56640
H         -1.76950        2.20390        5.88950
H         -0.29510        3.24540        5.86890
H         -1.38110        3.21490        3.43410
H         -1.48980        3.75320        1.35260
H         -2.04720        2.36680        0.49000
H         -0.49240        3.17160        0.08270
H         -0.48920       -2.04340       -2.16770
H         -0.76620       -1.72910       -3.79520
H         -2.06220       -1.25820       -2.66100
H         -1.37950        0.37760       -4.64480
H         -1.33970        2.26580       -6.03790
H          0.23480        3.12800       -5.95050
H         -1.21610        3.80690       -5.11750
H          0.88880        3.72800       -3.39510
H          2.08540        3.83170       -1.47940
H          2.81640        2.24620       -1.05150
H          1.51980        2.91200       -0.06860
H          2.52650        1.42660        2.23790
H          5.34880        0.77920        2.82280
H          4.10630        1.66190        3.77980
H          5.70560       -0.30670       -2.71770
H          6.85650       -1.58790       -3.01770
H          7.38560        0.11240       -3.17810
H          8.10420       -2.12400       -0.01930
H          9.22060       -0.91700       -0.79690
H          8.40180       -2.20770       -1.69370
H          6.12840        1.81300       -2.37940
H          6.59960        3.33650       -1.67830
H          4.91250        2.73490       -1.44870
H          6.64980        2.27520        1.80740
H          5.16920        2.97500        1.01790
H          6.83030        3.62240        0.70160
H          4.81450       -2.24230        1.45220
H          6.14450       -2.61900        2.54540
H          6.34960       -2.79620        0.77110
H          7.79510        0.57210        2.31350
H          8.50590       -0.80070        1.49230
H          7.75040       -1.02680        3.06900
