52

P          0.95690        0.07020        0.05670
C          0.17430       -1.03650        1.33880
C         -1.35380       -1.17890        1.40630
C          0.77950       -2.44230        1.16770
C          0.58590        1.83210        0.49510
C          1.15680        2.73260       -0.60350
C         -0.91780        2.12300        0.59820
C          0.26150       -0.64780       -1.47040
Au         3.41690        0.07020        0.05670
Br         3.41690        0.90990        2.50680
C          3.41690       -0.62690       -1.97720
C          3.96290        0.01290       -3.01340
N          5.51690        0.07020        0.05670
C          6.17150        1.22420        0.39810
C          5.41380        2.50320        0.55930
C          7.57520        1.26400        0.39960
C          8.30710        0.12640        0.09240
C          9.80600        0.14550        0.10410
C          7.62980       -1.05030       -0.22650
C          6.22280       -1.06320       -0.26820
C          5.51960       -2.38350       -0.42920
H          0.53000       -0.66350        2.32400
H         -1.77570       -1.57070        0.46280
H         -1.87830       -0.26390        1.69480
H         -1.60190       -1.90100        2.21690
H          0.43550       -2.92220        0.22890
H          0.48240       -3.10480        2.00850
H          1.89080       -2.39340        1.15350
H          1.05890        2.10260        1.45670
H          0.67560        2.50800       -1.58100
H          2.25050        2.59160       -0.70000
H          0.96290        3.80020       -0.35930
H         -1.45980        1.76900       -0.30780
H         -1.10200        3.21120        0.71100
H         -1.34380        1.68240        1.50900
H         -0.84720       -0.58230       -1.40480
H          0.55080       -1.70060       -1.62800
H          0.56580       -0.03510       -2.34140
H          2.92120       -1.57440       -2.16050
H          4.46730        0.96140       -2.88480
H          3.89770       -0.43750       -3.99730
H          4.33150        2.35260        0.38830
H          5.74400        3.20870       -0.23710
H          5.59620        2.96390        1.54910
H          8.08120        2.20170        0.62050
H         10.19920        1.15690        0.34360
H         10.19250       -0.15010       -0.89450
H         10.18250       -0.56740        0.86660
H          8.19200       -1.95620       -0.43130
H          6.23980       -3.22900       -0.46070
H          4.91100       -2.45390       -1.33660
H          4.88000       -2.54780        0.46850
