72

P          0.99490        0.07690        0.06380
C         -0.02560       -1.42940       -0.17070
C          0.48110       -2.37360       -1.09450
C         -0.07940       -3.64630       -1.23970
C          0.62670       -4.70000       -2.06100
C         -1.24970       -3.95050       -0.55090
C         -1.82740       -2.99530        0.30380
C         -1.20780       -1.75750        0.52770
C          0.47870        0.62900        1.69950
C          0.85720       -0.07950        2.85280
C          0.33910        0.28830        4.11030
C          0.70340       -0.46130        5.35850
C         -0.55760        1.36280        4.20060
C         -0.92180        2.07320        3.05660
C         -0.40470        1.71100        1.81250
C          0.34040        0.87450       -1.41990
C         -1.06250        1.01090       -1.53010
C         -1.65440        1.47240       -2.71150
C         -3.15260        1.55960       -2.83910
C         -0.83480        1.82090       -3.78790
C          0.55940        1.70810       -3.68080
C          1.14720        1.23420       -2.49610
Au         3.45490        0.07690        0.06380
Br         3.45490        2.66580        0.13780
C          3.45490       -2.07220        0.00230
C          4.45760       -2.95130        0.09830
C          5.60490        0.07690        0.06380
N          6.38900       -0.63450       -0.78660
C          6.00420       -1.44660       -1.94300
C          7.65920       -0.28450       -0.51260
C          7.64570        0.64670        0.50160
N          6.35990        0.87420        0.85280
C          5.92330        1.58910        2.02820
C          6.73160        2.56010        2.64920
C          6.32490        3.15630        3.84950
C          5.12100        2.77860        4.45230
C          4.31690        1.80720        3.85530
C          4.71370        1.21960        2.65750
H          1.37510       -2.13840       -1.65880
H          1.60920       -4.34080       -2.44460
H          0.00880       -5.04060       -2.91360
H          0.85290       -5.57720       -1.41040
H         -1.70860       -4.92520       -0.66250
H         -2.73910       -3.24900        0.82790
H         -1.64090       -1.05950        1.22390
H          1.52670       -0.92730        2.76800
H          1.42750       -1.27730        5.15280
H         -0.21110       -0.90650        5.80570
H          1.15630        0.23700        6.09380
H         -0.97890        1.64670        5.15750
H         -1.62330        2.89400        3.13120
H         -0.72390        2.25780        0.93670
H         -1.70190        0.71670       -0.70790
H         -3.66700        1.27510       -1.89520
H         -3.49860        0.86700       -3.63630
H         -3.45760        2.59340       -3.10400
H         -1.27590        2.16200       -4.71700
H          1.18030        1.96610       -4.52750
H          2.22210        1.11260       -2.44310
H          2.51760       -2.55960        0.03520
H          5.49300       -2.68890        0.19950
H          4.22080       -4.01390        0.10640
H          4.90410       -1.46140       -2.07510
H          6.41380       -2.47460       -1.86640
H          6.41900       -0.98130       -2.86260
H          8.53270       -0.66010       -1.02970
H          8.51770        1.08010        0.97030
H          7.67840        2.85410        2.21580
H          6.95060        3.90120        4.32310
H          4.81670        3.22910        5.38890
H          3.39500        1.49880        4.33210
H          4.08450        0.44180        2.24000
