44

P          1.08240       -0.00290        0.05660
C         -0.31080       -0.64740        1.03750
C          0.89680        1.70920        0.65170
C          0.43750       -0.35450       -1.57960
C         -0.51970        0.48650       -2.16730
C         -1.10780        0.12840       -3.38610
C         -0.75070       -1.06100       -4.02130
C          0.21230       -1.91140       -3.44690
C          0.80160       -1.55260       -2.21640
Au         3.54240       -0.00290        0.05660
Br         3.54240        1.21550       -2.22900
C          3.54240       -1.01430        1.95390
C          4.54360       -1.33960        2.77890
C          5.69240       -0.00290        0.05660
N          6.41960        0.99140       -0.30650
C          5.93290        2.33250       -0.54760
C          7.82790        0.71070       -0.16710
C          7.86440       -0.69590        0.42990
N          6.47750       -1.09070        0.48820
C          6.06160       -2.42320        0.08470
H         -1.28650       -0.23860        0.74320
H         -0.10690       -0.42090        2.11330
H         -0.30620       -1.75850        0.95270
H         -0.17610        2.00090        0.64950
H          1.44950        2.40010       -0.01440
H          1.28870        1.79130        1.68600
H         -0.83770        1.38860       -1.67140
H         -1.86410        0.76940       -3.82620
H         -1.20820       -1.34260       -4.95740
H          0.49180       -2.83520       -3.92830
H          1.51000       -2.22430       -1.75700
H          2.54760       -1.27090        2.30320
H          5.57710       -1.11260        2.60890
H          4.31170       -1.84880        3.70930
H          4.84800        2.42260       -0.34190
H          6.21160        2.68920       -1.55640
H          6.38770        3.01280        0.20980
H          8.29600        1.42100        0.55230
H          8.32690        0.77740       -1.15640
H          8.25030       -0.66430        1.47220
H          8.48490       -1.38930       -0.18170
H          6.87190       -3.16040        0.26780
H          5.84170       -2.43210       -1.00760
H          5.15350       -2.75080        0.62170
