36

P          0.94090        0.08060        0.00400
Cl        -1.02070        0.66950       -0.31910
Cl         0.93410       -0.97880       -1.77860
Cl         0.44010       -0.73990        1.84770
Au         3.40090        0.08060        0.00400
Br         3.29820       -2.00400        1.36640
C          3.28220        2.10590       -0.55040
C          2.79290        2.55690       -1.71220
P          5.86090        0.08060        0.00400
O          7.25830        1.02760        0.18080
C          6.97300        1.70550        1.41210
C          7.90660        2.86630        1.71510
O          6.33230       -1.21900        1.00280
C          6.29610       -2.42790        0.29880
C          6.56070       -3.54570        1.30210
O          6.14370        0.12870       -1.69410
C          5.53370        1.22490       -2.28730
C          6.09310        1.46080       -3.68060
H          3.65000        2.82850        0.17060
H          2.42830        1.87110       -2.46690
H          2.79020        3.62230       -1.91470
H          7.04680        0.99730        2.27370
H          5.95570        2.18290        1.41820
H          8.95040        2.51040        1.79320
H          7.61160        3.31540        2.69290
H          7.80950        3.64490        0.93580
H          7.06790       -2.45890       -0.49950
H          5.30560       -2.60600       -0.16710
H          7.59070       -3.44840        1.70700
H          6.44660       -4.53880        0.82420
H          5.84810       -3.48100        2.15700
H          5.68310        2.15530       -1.69880
H          4.48190        0.94770       -2.46600
H          7.17770        1.70430       -3.63650
H          5.55120        2.31300       -4.14720
H          5.93880        0.55920       -4.30580
