40

P          1.27500        0.00000        0.00000
O          0.30140        1.12840        0.87590
C         -1.08300        0.94810        0.74230
C         -1.39550       -0.21180       -0.18270
C         -2.92240       -0.35540       -0.30860
C         -0.71780        0.12860       -1.56390
O          0.67610        0.46720       -1.51730
O          0.65550       -1.35800        0.80480
C         -0.72950       -1.48340        0.45370
Au         3.73500        0.00030       -0.00050
Br         3.73500       -2.03840       -1.59790
C          3.73500        1.69270        1.32560
C          3.21230        2.86180        0.96570
N          5.83500        0.00060       -0.00090
C          6.55580        0.96900        0.66450
C          7.95340        1.04720        0.57180
C          8.66200        0.06780       -0.13570
O         10.01080        0.06830       -0.27660
C         10.85000        1.12680       -0.00760
C          7.94640       -0.94360       -0.73940
C          6.55800       -0.94050       -0.70160
H         -1.51360        1.89650        0.35000
H         -1.50720        0.77140        1.75360
H         -3.36800        0.58540       -0.70730
H         -3.37420       -0.53400        0.69390
H         -3.19000       -1.19230       -0.97990
H         -1.24410        1.01430       -1.99060
H         -0.86820       -0.71870       -2.26510
H         -1.27450       -1.70530        1.39810
H         -0.86710       -2.34920       -0.22570
H          4.15400        1.57710        2.32070
H          2.77490        2.98860       -0.01730
H          3.21670        3.69300        1.66480
H          6.09750        1.77510        1.19680
H          8.46630        1.87620        1.04140
H         11.89470        0.81620       -0.21500
H         10.77190        1.43280        1.05510
H         10.59900        1.97840       -0.67500
H          8.46770       -1.73500       -1.27070
H          6.12700       -1.76090       -1.21020
