60

P          0.99380        0.07220       -0.06890
C          0.25130        0.91830       -1.54300
C         -0.86150        0.43880       -2.26100
C         -1.20460        1.00690       -3.51000
C         -0.43620        2.03770       -4.06600
C          0.66140        2.51110       -3.37630
C          0.98340        1.95260       -2.15110
C          0.56830       -1.63910       -0.42450
C          1.00230       -2.24770       -1.61710
C          0.76390       -3.61210       -1.83190
C          0.07910       -4.36270       -0.87120
C         -0.38370       -3.74980        0.29470
C         -0.13900       -2.38980        0.52140
C          0.44340        1.11980        1.31280
C          0.70350        0.66440        2.63490
O          1.42670       -0.47600        2.82400
C          1.69730       -1.06960        4.04460
C          0.16900        1.37620        3.73020
C         -0.61100        2.51030        3.52510
C         -0.86700        2.95660        2.23060
C         -0.34770        2.26960        1.12860
Au         3.45380        0.07220       -0.06890
Br         3.68100        2.55200       -0.24310
C          3.49340       -2.07320        0.06070
C          4.54730       -2.87880       -0.05640
C          5.60380        0.07220       -0.06890
N          6.37640       -0.59450        0.82390
C          5.95540       -1.29160        2.03760
C          7.65580       -0.33520        0.49450
C          7.66100        0.48390       -0.61010
N          6.38550        0.75670       -0.94720
C          6.00110        1.44320       -2.18430
H         -1.43980       -0.39110       -1.88850
H         -2.04370        0.63210       -4.07460
H         -0.66710        2.46020       -5.03500
H          1.29450        3.29030       -3.79460
H          1.84050        2.33280       -1.73240
H          1.55700       -1.68230       -2.35420
H          1.12970       -4.08980       -2.73040
H         -0.08500       -5.42030       -1.02850
H         -0.91390       -4.33490        1.03930
H         -0.47990       -1.93980        1.44180
H          2.29360       -1.99050        3.88460
H          0.75240       -1.35290        4.55960
H          2.28160       -0.37860        4.68890
H          0.33080        1.04840        4.74950
H         -1.03030        3.03520        4.37480
H         -1.49050        3.82860        2.08140
H         -0.60270        2.63090        0.14460
H          2.59860       -2.62590        0.23210
H          5.54690       -2.54620       -0.27440
H          4.41080       -3.95350        0.03800
H          4.85290       -1.25290        2.15740
H          6.38310       -0.76550        2.92020
H          6.31700       -2.33870        2.04110
H          8.52280       -0.69930        1.03000
H          8.53510        0.83860       -1.13850
H          6.89940        1.67820       -2.79510
H          5.49250        2.39680       -2.02300
H          5.35980        0.76360       -2.79310
