80

P          0.97430       -0.06520       -0.07130
C         -0.03840       -0.12390       -1.58830
C         -1.07450       -1.04030       -1.81890
C         -1.65370       -1.15540       -3.09560
C         -1.19060       -0.38010       -4.15900
C         -0.16070        0.53880       -3.94380
C          0.40300        0.67550       -2.66880
C          0.55820       -1.69400        0.63780
C          1.01090       -2.87720        0.03350
C          0.54360       -4.12410        0.47450
C         -0.38500       -4.19950        1.51760
C         -0.82270       -3.03470        2.14160
C         -0.34580       -1.79330        1.71770
C          0.11910        1.27520        0.82490
C          0.75020        2.42930        1.34980
O          2.07550        2.63320        1.14270
C          2.75270        3.78190        1.51970
C         -0.03500        3.37500        2.06290
C         -1.40560        3.20240        2.21730
C         -2.03010        2.09450        1.65890
C         -1.27570        1.15550        0.96720
Au         3.43430       -0.06520       -0.07130
Br         3.43430       -0.05840        2.51870
C          3.43430       -0.07090       -2.22130
C          2.90910       -0.98020       -3.04070
P          5.89430       -0.06520       -0.07130
N          7.00570        0.07300       -1.52810
C          6.66900        1.30490       -2.28270
C          8.48430       -0.01830       -1.58830
C          9.07810       -1.06120       -0.73650
N          8.66600       -0.91290        0.65250
C          8.77140        0.29130        1.50990
C          7.98590        1.51890        1.00840
N          6.52310        1.33480        0.87510
C          5.80660        1.71370        2.07370
N          6.05180       -1.79640        0.39440
C          5.71520       -2.78190       -0.63510
C          6.87840       -2.22940        1.55330
C          8.38150       -2.17600        1.31490
H         -1.43420       -1.69070       -1.03350
H         -2.44600       -1.86850       -3.26380
H         -1.61200       -0.48980       -5.14990
H          0.22470        1.12840       -4.76810
H          1.22640        1.36620       -2.54290
H          1.69730       -2.83920       -0.79630
H          0.87970       -5.03170       -0.00800
H         -0.77230       -5.15930        1.84000
H         -1.55180       -3.08540        2.94290
H         -0.73490       -0.92580        2.21950
H          3.79340        3.75300        1.15020
H          2.75880        3.87860        2.62760
H          2.27640        4.67440        1.06070
H          0.40530        4.26500        2.49680
H         -1.98740        3.93400        2.76180
H         -3.09630        1.96660        1.75750
H         -1.80660        0.30150        0.55180
H          3.85450        0.78720       -2.68340
H          2.44800       -1.88820       -2.69010
H          2.97650       -0.80280       -4.11370
H          5.74250        1.20800       -2.82380
H          7.35810        1.49720       -3.13670
H          6.64830        2.20580       -1.63920
H          9.00510        0.94140       -1.45130
H          8.75010       -0.27270       -2.64320
H         10.17980       -1.08450       -0.84800
H          8.67220       -2.00850       -1.17410
H          9.83800        0.55680        1.64520
H          8.35190        0.06870        2.51200
H          8.37920        1.98700        0.10450
H          8.19790        2.33880        1.73210
H          6.16960        2.68210        2.47600
H          5.92290        0.93310        2.85070
H          4.77680        1.94060        1.78250
H          4.79940       -2.46080       -1.17290
H          5.48170       -3.76010       -0.16210
H          6.54180       -2.91680       -1.35970
H          6.64250       -1.57520        2.40720
H          6.64130       -3.27520        1.84740
H          8.70690       -3.03660        0.68710
H          8.96700       -2.27480        2.25530
