102

P          0.92070        0.02950       -0.05330
C          0.31640       -0.42260       -1.93950
C          0.79710       -1.71100       -2.67680
C          0.00220       -2.95700       -2.25160
C         -1.46890       -2.80860       -2.69360
C         -2.07770       -1.46380       -2.28380
C         -1.10650       -0.28280       -2.59320
C          0.46630       -1.50040        1.04960
C          0.92640       -1.25590        2.51230
C          0.00460       -0.27960        3.29540
C         -1.41480       -0.85380        3.44970
C         -1.97210       -1.14520        2.08280
C         -1.01650       -2.03700        1.23870
C          0.00420        1.93680        0.16270
C         -1.48120        2.01700        0.06880
C         -2.42540        0.95390       -0.29420
C         -2.27760        3.15660        0.30710
C         -1.76770        4.35020        0.68540
C         -2.65440        5.50010        1.05150
C         -0.42410        4.45900        0.68710
C          0.48870        3.39950        0.37950
C          1.83710        4.14390        0.35180
Au         3.38070        0.02950       -0.05330
Br         3.38070       -2.37870       -1.00640
C          3.38070        2.02870        0.73790
C          4.45660        2.82580        0.70860
C          5.53070        0.02950       -0.05330
N          6.29500       -0.02730       -1.18780
C          5.88080        0.00320       -2.59970
C          5.19150        1.32920       -2.96020
C          4.93150        1.39860       -4.47420
C          4.18430        2.66670       -4.87440
C          7.60000       -0.00740       -0.78070
C          7.62740        0.04070        0.57940
C          8.84880       -0.00090        1.27880
C         10.04490       -0.03750        0.55230
C         10.02090       -0.01400       -0.85110
C          8.78670        0.01110       -1.51740
N          6.36070        0.10620        1.05750
C          6.05920       -0.07620        2.48790
C          5.97560        1.14120        3.35850
C          5.48270        0.95130        4.66060
C          5.43760        2.00140        5.56790
C          5.90780        3.26300        5.18950
C          6.40040        3.47070        3.89640
C          6.44390        2.41050        2.97960
H          0.86310        0.39110       -2.46840
H          1.85890       -1.79280       -2.72680
H          0.64980       -1.62270       -3.78000
H          0.08920       -3.10510       -1.16680
H          0.41140       -3.86400       -2.74660
H         -2.08320       -3.64600       -2.29030
H         -1.50710       -2.86140       -3.80090
H         -2.35610       -1.54860       -1.24970
H         -3.05620       -1.31890       -2.78460
H         -1.46640        0.74170       -2.49990
H         -1.01850       -0.29940       -3.70650
H          1.05650       -2.34220        0.64760
H          1.97090       -0.89790        2.51990
H          0.89340       -2.22460        3.06320
H         -0.03520        0.70020        2.77260
H          0.39870       -0.11580        4.31700
H         -2.08130       -0.11760        3.96460
H         -1.41650       -1.78850        4.04420
H         -2.06900       -0.16100        1.70410
H         -2.99500       -1.58620        2.15320
H         -1.47370       -2.36560        0.31410
H         -0.97290       -2.98980        1.81080
H         -1.81260        0.08490       -0.31480
H         -2.96230        1.21760       -1.23520
H         -3.27020        0.83890        0.41580
H         -3.36050        3.11630        0.23890
H         -3.72200        5.27450        0.89010
H         -2.38470        6.41030        0.47240
H         -2.51000        5.71070        2.13850
H         -0.10180        5.46980        0.93770
H          1.81230        5.25700        0.27520
H          2.42630        3.93100       -0.56110
H          2.28560        4.17930        1.37280
H          2.48140        2.16550        1.29340
H          5.34940        2.53870        0.17280
H          4.47270        3.77890        1.22300
H          5.23290       -0.86570       -2.83430
H          6.76890       -0.07240       -3.26300
H          5.84600        2.18670       -2.67500
H          4.23830        1.40830       -2.39610
H          4.32820        0.52060       -4.78510
H          5.90340        1.37410       -5.01850
H          3.19830        2.70490       -4.36520
H          4.01530        2.66040       -5.97300
H          4.77220        3.57160       -4.61240
H          8.91440       -0.00940        2.36160
H         10.99670       -0.07340        1.07800
H         10.95270       -0.01420       -1.39390
H          8.81090        0.02010       -2.61330
H          6.92550       -0.58660        2.96100
H          5.30940       -0.87220        2.66540
H          5.14150       -0.03130        4.96710
H          5.07340        1.83520        6.56700
H          5.87650        4.07760        5.90100
H          6.75870        4.45410        3.60470
H          6.86320        2.58480        1.99760
