85

P          0.94160       -0.05610        0.05870
C          0.33530        0.17900       -1.80410
C          0.72510        1.54550       -2.44320
C          2.20720        1.61590       -2.90350
C          2.35430        0.79170       -4.18010
C          1.97060       -0.63970       -3.86810
C          0.66260       -0.84120       -2.98180
C          0.26540       -1.82520        0.27430
C          0.40940       -2.38740        1.73640
C         -0.57960       -1.80820        2.77460
C         -2.04890       -1.87210        2.26220
C         -2.25810       -1.39570        0.79390
C         -1.22100       -2.07030       -0.13040
C          0.26820        1.61960        0.83700
C          0.60680        3.04060        0.62520
C          1.67070        3.66700       -0.26630
C         -0.01040        4.06710        1.39470
C         -0.95320        3.76770        2.36350
C         -1.32350        2.45430        2.54950
C         -0.73390        1.44970        1.80570
Au         3.40160       -0.05610        0.05870
Br         3.40160       -2.11050       -1.51850
C          3.40160        1.64930        1.36800
C          4.23600        2.03800        2.31280
C          5.55160       -0.05610        0.05870
N          6.32220       -0.30140        1.08980
C          5.99920       -0.73850        2.45410
C          6.26550       -2.27800        2.62360
C          6.87540       -0.00460        3.50320
C          7.72600       -0.29710        0.70410
C          7.73160       -0.33080       -0.79320
N          6.36590       -0.00220       -1.12560
C          6.00980        0.62560       -2.40600
C          5.69720        2.12230       -2.20230
C          7.16650        0.54860       -3.44130
H         -0.76620        0.21150       -1.69710
H          0.41970        2.34060       -1.78670
H          0.11480        1.75120       -3.35100
H          2.88810        1.24320       -2.10330
H          2.50990        2.65470       -3.15970
H          3.41350        0.83260       -4.55230
H          1.71690        1.20650       -4.98200
H          2.88580       -0.91850       -3.43660
H          1.94720       -1.27460       -4.77830
H          0.52420       -1.89060       -2.67450
H         -0.13310       -0.64120       -3.73900
H          0.87310       -2.45920       -0.38760
H          1.44690       -2.28100        2.11490
H          0.17250       -3.47170        1.69550
H         -0.20970       -0.82520        3.09760
H         -0.52940       -2.36710        3.73490
H         -2.73570       -1.32750        2.95090
H         -2.35160       -2.93780        2.29580
H         -2.24760       -0.31030        0.63000
H         -3.29320       -1.69410        0.48710
H         -1.43820       -1.77650       -1.18260
H         -1.42830       -3.14830       -0.07280
H          2.30250        2.92950       -0.75790
H          2.37170        4.29080        0.33540
H          1.18850        4.35840       -1.00630
H          0.27070        5.11170        1.29430
H         -1.39460        4.53510        2.97990
H         -2.06580        2.20070        3.29690
H         -1.08550        0.51910        2.02340
H          2.55720        2.22000        1.46110
H          5.09210        1.51470        2.54240
H          3.97680        2.87560        2.96190
H          4.91220       -0.62880        2.67810
H          5.45990       -2.87640        2.15330
H          7.22840       -2.60580        2.18190
H          6.31070       -2.55610        3.69890
H          7.94580       -0.26120        3.38230
H          6.56370       -0.27530        4.53050
H          6.84820        1.09790        3.42110
H          8.34210       -1.13360        1.09680
H          8.14520        0.66460        1.08480
H          7.94130       -1.34240       -1.20350
H          8.48820        0.40530       -1.13270
H          5.13310        0.09800       -2.82230
H          6.59440        2.66140       -1.81950
H          4.87480        2.27870       -1.47920
H          5.41240        2.59290       -3.17080
H          8.05020        1.14720       -3.12210
H          6.85350        0.97110       -4.41910
H          7.49210       -0.49880       -3.59600
