31

P          1.06030        0.03200       -0.07300
C         -0.14230       -1.01640       -0.95940
C          0.73920       -0.66900        1.57930
C          0.31900        1.60050       -0.64210
Au         3.52030        0.03200       -0.07300
Br         3.52030       -2.42790        0.73750
C          3.52030        2.07400       -0.74590
C          3.03870        3.06370        0.00630
N          5.62030        0.03200       -0.07300
C          6.47860        1.14920       -0.16420
Cl         6.07710        2.85930       -0.10480
C          7.87100        1.01560       -0.19030
C          8.46520       -0.22780       -0.14790
C          7.66100       -1.33480       -0.05140
C          6.27480       -1.18850       -0.00090
H         -1.18490       -0.84710       -0.63110
H          0.13120       -2.08170       -0.79370
H         -0.04890       -0.82310       -2.05040
H         -0.35530       -0.68110        1.76640
H          1.22690       -0.04570        2.35420
H          1.09340       -1.71230        1.65340
H         -0.78890        1.52050       -0.57260
H          0.59200        1.80750       -1.69560
H          0.58690        2.43810        0.02070
H          3.92970        2.29270       -1.72770
H          2.62890        2.85510        0.98760
H          3.04600        4.08270       -0.36860
H          8.51920        1.88400       -0.24030
H          9.54290       -0.32870       -0.18070
H          8.10740       -2.32030       -0.02750
H          5.79370       -2.13010        0.01780
