70

P          1.03010       -0.09460       -0.01250
C          0.11790        1.56270       -0.18360
C         -1.41360        1.51580       -0.28080
C          0.47320        2.38740        1.07790
C          0.65130        2.38040       -1.37660
C          0.76720       -0.84290       -1.66980
C          1.86350       -1.39190       -2.37720
C          1.68400       -2.02580       -3.60870
C          0.40600       -2.16370       -4.14320
C         -0.69630       -1.70150       -3.44150
C         -0.51270       -1.05800       -2.19970
C          0.32380       -0.96450        1.41580
C         -0.39720       -2.14680        1.14240
C         -0.94340       -2.90760        2.17340
C         -0.77790       -2.50810        3.49860
C         -0.06390       -1.34170        3.79100
C          0.48680       -0.57200        2.75520
Au         3.49010       -0.09460       -0.01250
Br         3.49010        1.13260       -2.29340
C          3.49010       -1.11320        1.88080
C          2.93260       -2.31180        2.05970
P          5.95010       -0.09460       -0.01250
C          6.94030        1.44190       -0.15320
C          6.67290       -0.81500        1.53560
C          6.17370       -2.02060        2.05730
C          6.60400       -2.51980        3.29010
C          7.62700       -1.88390        3.98660
C          8.22910       -0.75600        3.43720
C          7.75210       -0.21470        2.23650
C          6.55960       -0.68940       -1.64370
C          7.40370        0.01300       -2.55360
C          8.00160       -0.64590       -3.62730
C          7.77860       -2.00450       -3.83080
C          6.93640       -2.70560       -2.96940
C          6.33500       -2.05560       -1.88660
H         -1.84960        0.93570        0.55670
H         -1.76680        1.16050       -1.25780
H         -1.81460        2.55320       -0.22640
H          0.02640        1.95210        1.98840
H          0.09340        3.42930        1.00630
H          1.57750        2.44770        1.21280
H          0.52780        1.83660       -2.33630
H          1.70900        2.65160       -1.21030
H          0.12820        3.35710       -1.46440
H          2.85670       -1.36020       -1.96310
H          2.54020       -2.42230       -4.14340
H          0.26540       -2.66160       -5.09220
H         -1.69140       -1.85140       -3.82330
H         -1.40040       -0.79050       -1.65900
H         -0.52980       -2.49210        0.12920
H         -1.48690       -3.81580        1.94000
H         -1.19480       -3.10910        4.29530
H          0.07100       -1.04580        4.82340
H          1.05700        0.30670        3.01380
H          4.05250       -0.67060        2.69630
H          2.46220       -2.83060        1.23330
H          3.01830       -2.80380        3.02480
H          6.75530        2.03680        0.76800
H          6.55890        2.08100       -0.97480
H          8.03100        1.25740       -0.23490
H          5.41280       -2.56220        1.52880
H          6.13820       -3.40360        3.70780
H          7.96370       -2.27360        4.93920
H          9.05760       -0.28850        3.95470
H          8.25800        0.66640        1.88440
H          7.68700        1.04570       -2.45430
H          8.67640       -0.10480       -4.28150
H          8.27320       -2.51420       -4.64740
H          6.77970       -3.76600       -3.11840
H          5.73380       -2.64080       -1.20130
