59

P          1.08990        0.03100       -0.03080
C          0.07220        1.03950        1.09240
C         -0.93410        1.93540        0.71410
C         -1.43570        2.86060        1.65190
C         -0.91060        2.91660        2.95440
C          0.08010        2.02160        3.33800
C          0.54770        1.06920        2.42690
C          0.76160        0.69540       -1.70880
C          1.17220        1.99400       -2.03910
C          0.86860        2.54260       -3.29480
C          0.14470        1.80820       -4.23300
C         -0.25080        0.50760       -3.93360
C          0.06950       -0.05260       -2.69420
C          0.43370       -1.64660        0.34690
C          1.05720       -2.51090        1.27760
O          2.18760       -2.10190        1.91080
C          2.86350       -2.83460        2.86620
C          0.47770       -3.77580        1.55340
C         -0.69550       -4.18110        0.92120
C         -1.33070       -3.32490        0.03580
C         -0.79060       -2.06490       -0.22640
Au         3.54990        0.03100       -0.03080
Br         3.27690       -1.87400       -1.61990
C          3.65690        1.71580        1.29990
C          2.73980        2.64470        1.52110
N          5.64990        0.03100       -0.03080
C          6.27610       -0.60370       -1.07350
C          7.67130       -0.71540       -1.14740
C          8.45910       -0.24500       -0.09780
C          9.94940       -0.41280       -0.08570
C          7.83130        0.36610        0.97810
C          6.44680        0.52180        0.98230
H         -1.30250        1.96310       -0.30020
H         -2.19680        3.57200        1.36870
H         -1.25310        3.66780        3.65550
H          0.52010        2.08740        4.32890
H          1.37190        0.43940        2.73790
H          1.71920        2.59030       -1.32670
H          1.18860        3.54770       -3.53740
H         -0.10600        2.23770       -5.19480
H         -0.81010       -0.06830       -4.66280
H         -0.24610       -1.06410       -2.54760
H          3.73290       -2.25270        3.22850
H          3.22530       -3.78820        2.42600
H          2.19750       -3.05100        3.73180
H          0.91940       -4.46210        2.26270
H         -1.12480       -5.15350        1.13540
H         -2.25490       -3.63210       -0.43990
H         -1.36130       -1.42820       -0.87650
H          4.54020        2.02320        1.80900
H          1.81670        2.68430        0.99110
H          2.96240        3.48110        2.18420
H          5.71210       -0.98720       -1.90170
H          8.12750       -1.18970       -2.00780
H         10.31770       -0.88060       -1.02220
H         10.23570       -1.06540        0.76790
H         10.44150        0.57460        0.04030
H          8.41170        0.70010        1.83130
H          6.08750        0.90520        1.90390
