72

P          0.91760        0.05650        0.00380
C          0.35270       -1.37570       -1.01670
C         -0.88070       -2.07210       -0.98930
C         -1.11350       -3.15160       -1.85290
C         -0.14410       -3.55040       -2.77030
C          1.06940       -2.87370       -2.82710
C          1.31530       -1.80610       -1.95830
C          0.18940       -0.50960        1.59950
C          0.90860       -0.78290        2.78060
C          0.22510       -1.09010        3.97800
C         -1.17270       -1.12150        4.01560
C         -1.89560       -0.81580        2.87100
C         -1.22290       -0.49040        1.69400
C          0.07090        1.57240       -0.59640
C          0.18490        2.83660        0.07720
O          1.00260        2.98290        1.16230
C          1.29450        4.19360        1.78350
C         -0.54760        3.94370       -0.41280
C         -1.38040        3.81600       -1.51710
C         -1.49500        2.59110       -2.16380
C         -0.77700        1.48250       -1.71220
Au         3.37760        0.05650        0.00380
Br         3.34010       -2.26680        0.91740
C          3.32170        2.01990       -0.78280
C          4.36280        2.82450       -1.08080
C          5.52760        0.05650        0.00380
N          6.32430       -0.10180       -1.12030
C          5.99330       -0.41260       -2.54170
C          5.33620        0.75840       -3.25180
C          7.24520       -0.80770       -3.37800
C          7.60010       -0.03700       -0.67250
C          7.60420        0.15840        0.66380
N          6.33700        0.20480        1.10910
C          6.08520        0.45100        2.53680
C          5.37310        1.78480        2.75830
C          5.37050       -0.71840        3.16880
H         -1.68500       -1.85030       -0.33020
H         -2.05510       -3.68380       -1.81060
H         -0.33460       -4.38250       -3.43760
H          1.82160       -3.17800       -3.54550
H          2.27240       -1.30270       -2.03500
H          1.98210       -0.72840        2.80560
H          0.77050       -1.28840        4.89150
H         -1.70200       -1.35210        4.93430
H         -2.98030       -0.80530        2.89770
H         -1.83050       -0.18670        0.85510
H          1.99800        4.03620        2.62600
H          0.37370        4.66830        2.18910
H          1.77520        4.89440        1.06310
H         -0.49010        4.91780        0.05630
H         -1.94120        4.67320       -1.86890
H         -2.15110        2.49870       -3.01770
H         -0.90540        0.54960       -2.23640
H          2.37360        2.47530       -0.96850
H          5.39140        2.51940       -0.95960
H          4.16070        3.80840       -1.48110
H          5.31870       -1.29580       -2.56770
H          6.00150        1.64930       -3.20080
H          4.35350        0.95320       -2.81080
H          5.15640        0.51630       -4.32070
H          7.97970        0.02680       -3.43580
H          6.96550       -1.06420       -4.42220
H          7.74820       -1.70000       -2.94500
H          8.50160       -0.13210       -1.26070
H          8.49310        0.26120        1.27500
H          7.06100        0.53210        3.07450
H          4.39500        1.81000        2.23810
H          6.01180        2.61330        2.37940
H          5.22000        1.94930        3.84730
H          4.36700       -0.78130        2.74570
H          5.27190       -0.57360        4.26250
H          5.95490       -1.64680        2.97660
