68

P          1.00130       -0.09710       -0.02370
C          0.53480       -1.16010        1.38510
C         -0.20490       -2.34120        1.19180
C         -0.61770       -3.11640        2.27640
C         -0.28210       -2.73720        3.57500
C          0.45520       -1.57550        3.78660
C          0.84590       -0.79170        2.70320
C          0.44590        1.62440        0.16580
C         -0.32440        2.01520        1.28080
C         -0.85690        3.30650        1.36480
C         -0.63250        4.22450        0.33900
C          0.13050        3.85360       -0.77120
C          0.66980        2.56100       -0.85990
C         -0.06380       -0.66910       -1.42050
C         -1.55510       -0.65770       -1.33720
C         -2.26140        0.53490       -1.15940
C         -3.65110        0.53460       -1.15870
C         -4.35140       -0.65740       -1.35310
C         -3.65820       -1.85360       -1.54870
C         -2.26570       -1.85620       -1.54290
Au         3.46130       -0.09710       -0.02370
Br         3.62500        0.99990        2.22940
C          3.24790       -1.03480       -1.94180
C          4.17410       -1.34930       -2.86120
C          5.61130       -0.09710       -0.02370
N          6.30160       -1.12120       -0.38590
C          5.76620       -2.46000       -0.52920
C          7.71610       -0.87260       -0.28520
C          7.79720        0.63660       -0.14610
N          6.46960        1.01580        0.29750
C          6.12310        2.41180        0.44520
C          4.81360        2.87150        0.22770
C          4.46160        4.20280        0.47350
C          5.42380        5.11990        0.89340
C          6.75070        4.71540        1.02870
C          7.10410        3.37670        0.80240
H         -0.48290       -2.68020        0.21500
H         -1.20310       -4.00940        2.10460
H         -0.60070       -3.33490        4.41680
H          0.71210       -1.26520        4.79070
H          1.35520        0.11760        2.92280
H         -0.55590        1.32460        2.07510
H         -1.46350        3.59000        2.21690
H         -1.06200        5.21800        0.39980
H          0.28430        4.56560       -1.57200
H          1.22550        2.28340       -1.74500
H          0.26850       -1.70360       -1.65110
H          0.21540       -0.04720       -2.29730
H         -1.75540        1.47350       -1.04690
H         -4.17740        1.46790       -1.02260
H         -5.43020       -0.64980       -1.36590
H         -4.19500       -2.77740       -1.71790
H         -1.74580       -2.79220       -1.72140
H          2.25440       -1.21760       -2.28810
H          5.23860       -1.18450       -2.76160
H          3.84420       -1.76100       -3.81510
H          4.66800       -2.48700       -0.38070
H          6.19280       -3.09580        0.27870
H          6.06000       -2.90690       -1.49840
H          8.30720       -1.25580       -1.14480
H          8.06600       -1.34120        0.66110
H          7.92870        1.06910       -1.16980
H          8.63700        0.95990        0.49910
H          4.04980        2.19250       -0.11360
H          3.43510        4.51930        0.34730
H          5.14260        6.14570        1.10160
H          7.50090        5.44000        1.32740
H          8.14380        3.11100        0.93520
