65

P          0.98660        0.07340       -0.06660
C          0.03070       -1.25000       -1.04860
C         -1.50100       -1.27430       -0.96430
C          0.34300       -1.09150       -2.57200
C          0.48480       -2.64070       -0.51330
C          0.42360       -0.28560        1.64590
C          1.08110       -1.19680        2.49640
C          0.52630       -1.52300        3.75180
C         -0.68710       -0.95990        4.16150
C         -1.34180       -0.06150        3.33130
C         -0.78970        0.27260        2.09930
C          0.37600        1.66140       -0.77200
C         -1.01010        1.96880       -0.81660
C         -1.48300        3.15890       -1.36410
C         -0.58730        4.07910       -1.88930
C          0.78290        3.80340       -1.86330
C          1.26320        2.60340       -1.30970
Au         3.44660        0.07340       -0.06660
Br         3.40820        2.13640        1.35550
C          3.53050       -1.66570       -1.26140
C          4.36700       -2.68550       -1.00720
N          5.54660        0.07340       -0.06660
C          6.19600        0.67590        0.98560
C          7.58200        0.61800        1.14620
C          8.36300       -0.05370        0.22300
C          7.76510       -0.59940       -0.90470
C          8.55350       -1.23890       -1.87960
C          7.97310       -1.74550       -3.04520
C          6.61520       -1.51750       -3.30530
C          5.89020       -2.04260       -4.51240
O          4.72560       -1.71700       -4.70010
C          6.45230       -3.07300       -5.44890
C          5.87030       -0.81330       -2.35080
C          6.36100       -0.47360       -1.07150
H         -1.96170       -0.42820       -1.49500
H         -1.85570       -1.36120        0.07860
H         -1.87540       -2.16260       -1.52650
H         -0.11840       -0.16640       -2.96830
H         -0.05270       -1.95660       -3.15050
H          1.38370       -0.95860       -2.87660
H          0.14160       -2.78920        0.52930
H          1.56200       -2.80150       -0.46630
H          0.07470       -3.47520       -1.11930
H          2.00270       -1.67160        2.19070
H          1.01980       -2.22710        4.40820
H         -1.13070       -1.21910        5.11570
H         -2.28990        0.37280        3.62940
H         -1.35560        0.95510        1.51570
H         -1.77150        1.31970       -0.44060
H         -2.54950        3.36230       -1.38080
H         -0.96130        5.00110       -2.31710
H          1.47130        4.52430       -2.27860
H          2.32410        2.41050       -1.31000
H          2.79660       -1.95400       -1.96530
H          5.04680       -2.66650       -0.16030
H          4.29040       -3.59620       -1.59750
H          5.67720        1.13440        1.79680
H          8.04740        1.06800        2.01400
H          9.43550       -0.10990        0.36910
H          9.62020       -1.36060       -1.73330
H          8.60650       -2.26680       -3.74600
H          7.49350       -3.35950       -5.22630
H          6.38820       -2.70620       -6.49300
H          5.83160       -3.99320       -5.36070
H          4.87460       -0.54540       -2.63040
