48

P          1.05040        0.06060        0.06150
C         -0.18730       -0.79930        1.08940
C          0.77420        1.72690        0.75140
C          0.33030       -0.44730       -1.53370
Au         3.51040        0.06060        0.06150
Br         3.22300        0.18300        2.55090
C          3.43560       -0.24410       -1.98110
C          3.84510        0.66680       -2.85630
P          5.97040        0.06060        0.06150
N          7.21190       -0.02630       -1.24370
C          8.60570       -0.48460       -0.98740
C          6.69550       -0.77050       -2.42280
N          6.40240        1.68870        0.74010
C          5.84850        2.03060        2.05230
C          7.84440        1.95870        0.76650
N          6.37530       -1.47040        0.91200
C          5.89850       -1.58130        2.28990
C          5.90120       -2.63870        0.15740
H         -1.21940       -0.44680        0.90950
H          0.07770       -0.64070        2.15860
H         -0.11330       -1.89180        0.89770
H         -0.31560        1.93890        0.77640
H          1.26730        2.48140        0.10690
H          1.16020        1.81340        1.78370
H         -0.77290       -0.29410       -1.48230
H          0.52250       -1.52000       -1.73040
H          0.70780        0.18880       -2.35620
H          3.05100       -1.19470       -2.33720
H          4.24260        1.61270       -2.51370
H          3.78630        0.45140       -3.91970
H          9.20100        0.17470       -0.34280
H          9.18340       -0.44990       -1.95100
H          8.64830       -1.52050       -0.60320
H          5.70300       -1.20830       -2.25440
H          7.32280       -1.64340       -2.71960
H          6.64150       -0.08070       -3.29020
H          4.76110        2.11880        1.98980
H          6.15230        3.05960        2.34590
H          6.22650        1.37540        2.85840
H          8.21340        2.10250       -0.26840
H          8.37980        1.17000        1.34340
H          8.07690        2.92710        1.25590
H          6.13490       -0.69280        2.88490
H          6.42600       -2.42040        2.79270
H          4.82640       -1.84020        2.31910
H          6.45720       -2.76180       -0.78550
H          4.80810       -2.56690       -0.04090
H          6.10000       -3.57940        0.72300
