82

P          0.97470       -0.05300        0.08100
C         -0.07240        1.33570       -0.69250
C         -1.60550        1.21830       -0.82570
C         -2.33510        1.60670        0.46410
C         -1.94890        3.02610        0.90740
C         -0.44160        3.13100        1.11770
C          0.26580        2.77440       -0.17410
C          0.53940       -1.43450       -1.18500
C          0.84500       -1.25710       -2.68750
C          2.22510       -1.76060       -3.05900
C          2.29230       -3.27780       -2.78290
C          2.06320       -3.58120       -1.30610
C          0.77270       -2.94060       -0.78720
C          0.28840       -0.45120        1.86890
C         -0.90680       -1.25570        2.15860
C         -1.75280       -2.08490        1.23610
C         -1.42880       -1.37700        3.46670
C         -0.84200       -0.79610        4.56630
C         -1.46440       -0.97280        5.94480
C          0.33320       -0.08760        4.36700
C          0.90490        0.08650        3.07010
C          2.19940        0.83780        3.09760
Au         3.43470       -0.05300        0.08100
Br         3.43470       -2.23830        1.47110
C          3.43470        1.76110       -1.07310
C          4.17620        2.70860       -1.68160
N          5.53470       -0.05300        0.08100
C          6.15840       -0.82630        1.16800
C          6.04470        1.33160        0.14730
C          6.07840       -0.74700       -1.09670
C          7.36970       -0.48290       -1.63650
C          7.87360       -1.22940       -2.71220
C          7.12750       -2.26780       -3.25520
C          5.89020       -2.57670       -2.72320
C          5.37300       -1.79450       -1.65600
H          0.30680        1.34800       -1.72820
H         -1.93860        0.23710       -1.20150
H         -1.92160        1.95600       -1.60180
H         -2.08870        0.89240        1.26440
H         -3.42910        1.57670        0.28010
H         -2.46860        3.28890        1.85030
H         -2.25640        3.75950        0.12590
H         -0.09810        2.45970        1.92740
H         -0.17880        4.17840        1.39050
H          1.33390        2.97560       -0.00270
H         -0.06570        3.50470       -0.95100
H         -0.53690       -1.30930       -1.22070
H          0.67780       -0.23040       -3.04210
H          0.12470       -1.89110       -3.26150
H          2.96580       -1.16520       -2.49840
H          2.39600       -1.59400       -4.14260
H          3.26310       -3.69370       -3.08970
H          1.52240       -3.80140       -3.38670
H          2.90030       -3.22140       -0.75480
H          2.05950       -4.68000       -1.13090
H          0.66790       -3.12430        0.30440
H         -0.02340       -3.53320       -1.29180
H         -1.41250       -2.22610        0.24890
H         -2.79160       -1.70370        1.18920
H         -1.77080       -3.12280        1.64160
H         -2.33010       -1.95990        3.64030
H         -2.39490       -1.58920        5.90350
H         -1.75250        0.00670        6.38110
H         -0.76350       -1.48470        6.62830
H          0.81200        0.33770        5.24440
H          2.06430        1.82290        3.59080
H          2.64890        0.97370        2.10280
H          2.91120        0.24860        3.72410
H          2.42190        1.93390       -1.33120
H          5.23450        2.82440       -1.72030
H          3.64970        3.48130       -2.24190
H          5.85530       -0.39450        2.14990
H          7.27480       -0.74210        1.13180
H          5.95370       -1.90840        1.15670
H          5.24900        2.02140        0.46900
H          6.57250        1.68710       -0.75040
H          6.77630        1.49890        0.96690
H          8.02430        0.26980       -1.24120
H          8.84940       -1.00600       -3.11620
H          7.51620       -2.85340       -4.07610
H          5.34340       -3.40720       -3.12170
H          4.44930       -2.05310       -1.22510
