57

P          1.27500        0.00000       -0.00000
O          0.34290        0.04810        1.45700
C         -1.04300        0.15330        1.27250
C         -1.40480        0.08440       -0.19080
C         -2.93520        0.13340       -0.33360
C         -0.70200        1.31430       -0.87760
O          0.68880        1.48660       -0.56620
O          0.60190       -1.46980       -0.51720
C         -0.80250       -1.26380       -0.74320
Au         3.73500        0.00030       -0.00050
Br         3.73450        0.11060       -2.58810
C          3.73540       -0.09120        2.14760
C          3.19640        0.85100        2.91620
P          6.19500        0.00070       -0.00090
N          7.14920        1.23440       -0.85040
C          6.72990        2.52060       -0.24620
C          8.60580        1.13370       -0.86000
O          6.46660       -1.09000       -1.18960
C          6.61330       -2.34910       -0.71880
C          5.80400       -3.32970       -1.30370
C          5.82060       -4.64260       -0.84500
C          6.66890       -5.00730        0.19280
C          7.51110       -4.06090        0.77430
C          7.51250       -2.71250        0.36170
C          8.44970       -1.79350        1.12750
C          9.76050       -2.26390        1.38520
C         10.68310       -1.50900        2.11380
C         10.31820       -0.27760        2.64250
C          9.03200        0.20650        2.43560
C          8.10280       -0.51690        1.67440
O          6.91110        0.07080        1.48680
H         -1.37780        1.11050        1.72850
H         -1.51930       -0.67980        1.83680
H         -3.33330        1.07050        0.11680
H         -3.39870       -0.71780        0.21490
H         -3.24130        0.08470       -1.39600
H         -1.21630        2.23360       -0.51990
H         -0.83890        1.25890       -1.97750
H         -1.33280       -2.10070       -0.23540
H         -1.01580       -1.34030       -1.82890
H          4.20360       -0.95350        2.61140
H          2.72240        1.72130        2.48020
H          3.23130        0.74130        3.99700
H          5.62030        2.63940       -0.28590
H          7.16510        3.39180       -0.77770
H          7.02520        2.58090        0.82930
H          8.92300        0.15970       -1.27260
H          9.04080        1.32920        0.13500
H          9.00410        1.93670       -1.51910
H          5.12530       -3.05890       -2.10460
H          5.16300       -5.38040       -1.28640
H          6.67100       -6.02570        0.55980
H          8.14190       -4.39060        1.59220
H         10.08620       -3.22180        1.00110
H         11.68670       -1.88190        2.27080
H         11.03210        0.30980        3.20650
H          8.76020        1.17440        2.84230
