72

P          0.99160        0.09820       -0.01720
O          0.72440       -0.51790       -1.58580
C          1.32470        0.33320       -2.53260
C          0.94620       -0.16400       -3.92290
O          0.56370       -1.00050        1.24270
C         -0.83970       -1.26910        1.18800
C         -1.31290       -2.00040        2.43340
C         -0.30390        1.39480        0.22650
C         -1.14270        1.90020       -0.78690
C         -1.99680        2.98500       -0.52000
C         -2.03730        3.56840        0.75140
C         -1.24470        3.05450        1.77050
C         -0.40140        1.97760        1.51320
Au         3.45160        0.09820       -0.01720
Br         3.45160       -2.46010       -0.42140
C          3.45160        2.22180        0.31830
C          2.66080        2.65910        1.27860
P          5.91160        0.09820       -0.01720
C          6.62970       -1.31230       -0.92570
C          5.90810       -1.63880       -2.09570
C          6.19470       -2.78210       -2.83960
C          7.23470       -3.61560       -2.44580
C          7.99030       -3.29550       -1.31170
C          7.69200       -2.15350       -0.54410
C          6.63810        1.63190       -0.70090
C          5.87340        2.51830       -1.47600
C          6.38930        3.74430       -1.90130
C          7.71670        4.06820       -1.63720
C          8.53140        3.15050       -0.96820
C          7.99610        1.93890       -0.49610
C          6.30240       -0.50830        1.70460
C          5.99590        0.46000        2.85110
C          5.48470        1.74280        2.63360
C          5.12970        2.59270        3.68750
C          5.34370        2.18760        4.99310
C          5.92710        0.94660        5.25050
C          6.24740        0.08060        4.18890
H          2.43150        0.32250       -2.43690
H          0.95660        1.37700       -2.44720
H          1.34700       -1.18760       -4.08140
H          1.36130        0.51150       -4.69980
H         -0.16030       -0.19340       -4.03230
H         -1.09770       -1.85420        0.28160
H         -1.47610       -0.36610        1.22610
H         -0.82720       -2.99010        2.51250
H         -2.41750       -2.13890        2.37390
H         -1.09820       -1.39300        3.34050
H         -1.12640        1.49660       -1.78560
H         -2.62070        3.39050       -1.30420
H         -2.68360        4.41370        0.95080
H         -1.27000        3.49320        2.76170
H          0.17960        1.60680        2.34260
H          4.12830        3.00120        0.03730
H          2.11130        1.92320        1.81300
H          2.67060        3.69290        1.61150
H          5.06710       -1.02960       -2.41260
H          5.59220       -3.03090       -3.70750
H          7.44540       -4.51230       -3.01690
H          8.79490       -3.95460       -1.01680
H          8.28190       -1.97130        0.33510
H          4.85800        2.27810       -1.74590
H          5.75540        4.44170       -2.43620
H          8.11400        5.02010       -1.97030
H          9.57350        3.39200       -0.80400
H          8.64000        1.25270        0.03680
H          7.39690       -0.67220        1.77080
H          5.78070       -1.47230        1.87000
H          5.36500        2.10640        1.65340
H          4.69750        3.55760        3.46270
H          5.07280        2.85310        5.80480
H          6.12130        0.65480        6.27300
H          6.69400       -0.87860        4.41070
