60

P          1.03210        0.07350        0.05970
C          0.63080       -1.60040        0.59330
C         -0.70060       -1.87660        0.91880
C         -1.09960       -3.16390        1.27630
C         -0.14820       -4.18520        1.36060
C          1.19340       -3.90460        1.09570
C          1.59090       -2.60960        0.70200
C          0.62740        1.60240        0.93130
C          0.33280        1.52040        2.29890
C         -0.03390        2.66360        3.01510
C         -0.14600        3.89610        2.36370
C          0.12980        3.98220        0.99860
C          0.53300        2.84870        0.28600
C         -0.00880        0.24370       -1.55380
C          0.36560       -0.73700       -2.70730
C         -0.44660       -2.03900       -2.71780
C         -1.94080       -1.72150       -2.86710
C         -2.43130       -0.79500       -1.74810
C         -1.55250        0.47760       -1.60720
Au         3.49210        0.07350        0.05970
Br         3.49210       -0.38650        2.60860
C          3.49210        0.45530       -2.05610
C          3.20500        1.71680       -2.36640
N          5.59210        0.07350        0.05970
C          6.06360        1.33010       -0.57510
C          6.25470       -0.14690        1.35510
C          6.04060       -0.93330       -0.93510
H         -1.42970       -1.08470        0.89650
H         -2.14110       -3.37010        1.49180
H         -0.45790       -5.18060        1.64480
H          1.93150       -4.69410        1.17940
H          2.62600       -2.41420        0.48260
H          0.40320        0.57800        2.81870
H         -0.24810        2.59340        4.07740
H         -0.45080        4.77300        2.91650
H          0.03050        4.93410        0.48940
H          0.72270        2.96300       -0.76990
H          0.41000        1.19960       -1.91370
H          1.44560       -0.96290       -2.72160
H          0.13750       -0.23130       -3.67490
H         -0.24910       -2.62630       -1.80050
H         -0.13710       -2.65350       -3.59280
H         -2.53290       -2.66520       -2.85960
H         -2.10820       -1.23180       -3.85240
H         -2.48200       -1.38220       -0.82970
H         -3.47760       -0.49200       -1.96950
H         -1.89470        1.15440       -0.80130
H         -1.72980        1.01660       -2.56460
H          3.68900       -0.28720       -2.82150
H          3.01760        2.40570       -1.54670
H          3.15410        2.06870       -3.38770
H          5.68380        2.19410        0.01050
H          5.73590        1.47570       -1.62120
H          7.17640        1.39490       -0.57660
H          5.98560        0.65890        2.06990
H          7.36240       -0.13080        1.24870
H          5.98640       -1.14340        1.76490
H          5.68620       -0.75560       -1.96610
H          5.66200       -1.93320       -0.63410
H          7.15250       -0.99800       -0.98220
