45

P          1.07190        0.06840       -0.01230
C         -0.21170       -0.51670        1.14360
C          0.78530        1.84730        0.27020
C          0.38370       -0.76690       -1.48410
Au         3.53190        0.06840       -0.01230
Br         3.53190        1.46750        2.16730
C          3.53190       -1.09310       -1.82160
C          3.04850       -2.33970       -1.86840
P          5.99190        0.06840       -0.01230
O          7.44780        0.50750        0.76350
C          7.26570        0.01810        2.09000
C          8.30050        0.47560        3.07470
O          6.61420       -1.52590       -0.33620
C          6.37650       -1.98990       -1.63350
C          6.93690       -3.37820       -1.89930
O          6.19010        1.02790       -1.40640
C          5.69870        2.31760       -1.13320
C          6.07200        3.22730       -2.29290
H         -1.23150       -0.19370        0.85570
H          0.02890       -0.12260        2.15490
H         -0.16180       -1.62450        1.20570
H         -0.30060        2.06340        0.18990
H          1.32480        2.44100       -0.49450
H          1.10090        2.15390        1.28260
H         -0.71180       -0.57770       -1.50320
H          0.52230       -1.86130       -1.42180
H          0.81180       -0.34590       -2.41210
H          3.87320       -0.61680       -2.73540
H          2.69100       -2.82550       -0.96860
H          3.04080       -2.87900       -2.81130
H          7.27830       -1.10650        2.09150
H          6.28350        0.35800        2.53090
H          9.31380        0.15020        2.73480
H          8.11160        0.01190        4.07280
H          8.28390        1.57220        3.17440
H          6.65360       -1.27130       -2.43620
H          5.38300       -2.30300       -1.62490
H          8.03890       -3.38280       -1.98750
H          6.49510       -3.74880       -2.85560
H          6.60920       -4.08090       -1.09800
H          6.15500        2.74840       -0.20960
H          4.58690        2.29690       -1.04520
H          7.17750        3.27570       -2.39430
H          5.68220        4.25250       -2.11810
H          5.64390        2.83470       -3.24010
