65

C          0.90100       -0.64300       -0.00200
N         -0.36580       -1.18400        0.10380
C         -0.80450       -2.59730        0.24520
C         -0.00550       -3.61410        0.90050
C          1.19390       -3.35630        1.78620
C         -0.39280       -4.96350        0.86420
C         -1.57040       -5.37140        0.26690
C         -1.93910       -6.82620        0.19920
C         -2.43430       -4.41260       -0.22850
C         -2.10160       -3.04490       -0.23470
C         -3.20820       -2.15080       -0.74880
C         -1.17770       -0.11140        0.14010
C         -0.43670        1.04240        0.04920
N          0.86900        0.77790       -0.10080
C          1.93600        1.87250       -0.28110
C          1.73530        3.33260       -0.30550
C          0.45830        4.12920       -0.49010
C          2.85920        4.21080       -0.19920
C          4.16490        3.73440       -0.12120
C          5.37850        4.59110        0.08950
C          4.37510        2.40350       -0.29620
C          3.31480        1.52670       -0.45160
C          3.71390        0.19890       -0.79110
Au         2.65840       -1.88140       -0.01350
Br         1.80460       -3.00140       -2.07590
C          3.54620       -1.00770        1.90620
C          4.48470       -1.53410        2.74820
N          4.37500       -3.09110       -0.02470
C          4.24820       -4.37620       -0.48630
C          5.31660       -5.27900       -0.43900
F          5.14460       -6.56480       -0.83380
C          6.54950       -4.85870        0.04470
C          6.70450       -3.54010        0.44920
C          5.61070       -2.67200        0.39990
H          0.95120       -2.58910        2.54870
H          1.48360       -4.26500        2.35700
H          2.12020       -3.18100        1.28620
H          0.23370       -5.72610        1.31580
H         -1.12520       -7.47150        0.59480
H         -2.09700       -7.11790       -0.86150
H         -2.87350       -7.01000        0.76990
H         -3.38530       -4.75340       -0.62060
H         -4.09700       -2.72160       -1.09610
H         -2.87190       -1.51000       -1.58400
H         -3.62340       -1.56710        0.10130
H         -2.22940       -0.07910        0.26660
H         -0.93140        1.97430        0.09620
H         -0.44680        3.62150       -0.81290
H          0.62160        4.78720       -1.37760
H          0.26650        4.78880        0.37710
H          2.71880        5.28420       -0.17690
H          5.13340        5.66720        0.14030
H          6.11060        4.40760       -0.72680
H          5.85950        4.28570        1.04820
H          5.39840        2.03320       -0.31510
H          4.78460       -0.06660       -0.68300
H          3.23720       -0.17520       -1.71280
H          3.22470       -0.11160       -0.00100
H          3.11320       -0.09380        2.27340
H          4.92910       -2.51960        2.64970
H          4.76200       -1.02000        3.65690
H          3.29890       -4.75610       -0.81850
H          7.38280       -5.54780        0.10120
H          7.66360       -3.19010        0.80940
H          5.78470       -1.65130        0.69550
