49

C          0.90100       -0.64300       -0.00200
N         -0.41900       -1.04420        0.02790
C         -1.08030       -2.37170        0.06600
C         -0.04430       -3.49760        0.11580
C         -2.00850       -2.44380        1.30770
C         -1.96800       -2.56950       -1.18810
C         -1.14330        0.09580        0.01160
C         -0.30440        1.16240        0.00970
N          0.97100        0.72270        0.00890
C          2.12750        1.64190        0.10980
C          2.03100        2.37350        1.46880
C          3.47160        0.89950        0.05780
C          2.08690        2.67900       -1.03280
Au         2.65840       -1.88140       -0.01350
Br         2.57800       -1.69960       -2.49850
C          2.79540       -2.09650        2.07770
C          2.00640       -1.56890        2.98950
O          4.33420       -3.06230       -0.02450
C          4.60410       -3.85330       -1.04200
C          5.74270       -4.58020       -0.77690
C          6.20140       -4.13950        0.44010
C          5.28790       -3.20670        0.88310
H          0.60360       -3.38790        1.00590
H          0.58030       -3.47420       -0.80140
H         -0.55100       -4.48610        0.16870
H         -1.45480       -2.21480        2.24110
H         -2.48520       -3.44300        1.40050
H         -2.84170       -1.70870        1.22520
H         -1.36520       -2.51640       -2.11780
H         -2.76520       -1.79620       -1.25040
H         -2.47940       -3.55730       -1.15310
H         -2.22360        0.15990        0.02220
H         -0.61770        2.19800        0.03040
H          2.06090        1.63580        2.30090
H          1.07880        2.93930        1.55780
H          2.86630        3.09190        1.60400
H          3.54910        0.16300        0.87950
H          4.31270        1.61800        0.16760
H          3.59500        0.38540       -0.91280
H          1.13980        3.25880       -1.01900
H          2.17300        2.17800       -2.01930
H          2.91760        3.41000       -0.92710
H          3.52250       -2.77970        2.49190
H          1.21040       -0.90190        2.72470
H          2.17920       -1.86140        4.02660
H          3.97830       -3.98620       -1.91130
H          6.18530       -5.34520       -1.40080
H          7.10140       -4.46050        0.94730
H          5.41690       -2.64490        1.79500
