51

C          0.90100       -0.64300       -0.00200
N         -0.38860       -1.12570       -0.16920
C         -1.02500       -2.46720       -0.21130
C         -1.61290       -2.71250        1.20750
C         -2.16510       -2.49950       -1.27170
C         -0.07530       -3.62800       -0.51120
C         -1.19510       -0.05450       -0.02760
C         -0.48630        1.03330        0.20850
N          0.83120        0.73130        0.27620
C          1.74220        1.88820        0.56060
C          1.35600        2.53910        1.92420
C          3.23250        1.53340        0.61650
C          1.55840        2.96030       -0.55320
Au         2.65840       -1.88140       -0.01350
Br         2.25240       -2.11970       -2.46830
C          2.81510       -1.57970        2.09330
C          1.88280       -0.98830        2.84830
N          4.37500       -3.09110       -0.02470
C          5.34550       -3.01950        0.94720
C          6.49580       -3.80990        0.89770
C          6.68260       -4.68190       -0.16380
F          7.80210       -5.44380       -0.23280
C          5.71830       -4.75310       -1.16080
C          4.57350       -3.95350       -1.07300
H         -2.28600       -1.88800        1.52870
H         -0.78550       -2.75280        1.94990
H         -2.18580       -3.65550        1.26730
H         -2.95150       -1.73670       -1.10430
H         -2.69730       -3.47240       -1.25920
H         -1.74650       -2.32400       -2.28570
H          0.76490       -3.66930        0.20950
H          0.28950       -3.57040       -1.54810
H         -0.64150       -4.58470       -0.44770
H         -2.28100       -0.04450       -0.04860
H         -0.93260        2.00730        0.35710
H          1.52820        1.83940        2.76450
H          0.28700        2.84200        1.96840
H          1.93420        3.46960        2.10920
H          3.45070        0.83860        1.44180
H          3.80940        2.46520        0.83350
H          3.59130        1.12890       -0.34900
H          0.53440        3.39590       -0.56080
H          1.73680        2.51660       -1.55600
H          2.24940        3.82080       -0.41990
H          3.60890       -1.97890        2.68030
H          0.95840       -0.59370        2.46660
H          2.02090       -0.95300        3.92710
H          5.31220       -2.33120        1.75780
H          7.24570       -3.72750        1.67490
H          5.85650       -5.42030       -2.00150
H          3.85560       -4.05160       -1.86180
