56

C          0.90100       -0.64300       -0.00200
N         -0.44810       -0.95240       -0.04220
C         -1.13650       -2.26400       -0.19480
C         -0.96580       -3.17210        1.03980
C         -1.88180       -2.75090        2.21190
C         -3.35580       -2.85350        1.79370
C         -3.62450       -1.89680        0.63330
C         -2.67230       -2.19860       -0.55020
C         -1.07570        0.24760        0.01200
C         -0.14290        1.24230        0.08300
N          1.08920        0.70390        0.05890
C          2.39210        1.42890       -0.03460
C          2.22850        2.96940       -0.01150
C          1.87120        3.48040        1.40040
C          2.98000        3.10600        2.38750
C          3.15900        1.58340        2.42340
C          3.46710        1.04610        1.01690
Au         2.65840       -1.88140       -0.01350
Br         2.77120       -1.69740       -2.59450
C          2.56480       -2.03420        2.12900
C          1.61220       -1.47390        2.88090
N          4.37500       -3.09110       -0.02470
C          5.15660       -3.52190        0.99690
O          6.13960       -4.28390        0.57470
C          6.03610       -4.37590       -0.72580
C          4.94760       -3.63570       -1.11940
H         -0.64920       -2.74090       -1.07150
H          0.09520       -3.19760        1.34800
H         -1.25640       -4.20890        0.75790
H         -1.65420       -1.71220        2.53750
H         -1.71340       -3.43320        3.07140
H         -4.02450       -2.60210        2.64780
H         -3.58720       -3.89880        1.48620
H         -3.51890       -0.86190        1.00840
H         -4.68420       -2.01360        0.30370
H         -2.86610       -1.49310       -1.38650
H         -2.96690       -3.20890       -0.91110
H         -2.13630        0.41780       -0.02270
H         -0.38780        2.29810        0.09950
H          2.81220        1.15140       -1.02600
H          1.47500        3.28830       -0.76050
H          3.19160        3.44040       -0.31020
H          0.91760        3.04500        1.76200
H          1.75440        4.58390        1.37680
H          2.72560        3.47800        3.40360
H          3.93020        3.59240        2.07190
H          2.23590        1.11810        2.81750
H          4.00020        1.33470        3.10910
H          3.65110       -0.03940        1.02830
H          4.43020        1.50850        0.70080
H          3.28630       -2.58810        2.69050
H          0.80660       -0.88670        2.47050
H          1.63230       -1.60190        3.95880
H          5.05000       -3.29260        2.03600
H          6.70090       -4.94480       -1.36170
H          4.61620       -3.53630       -2.13740
