62

C          0.86270       -0.75750        0.10030
N          0.65420        0.21160        1.02130
C          1.51590        0.55380        2.14300
C          1.93530        2.02290        2.09890
C         -0.52860        0.78480        0.72170
C         -1.02180        0.19340       -0.41300
N         -0.15380       -0.75940       -0.81040
C         -0.32120       -1.52720       -2.04540
C         -0.39240       -3.00300       -1.74400
Au         2.65840       -1.88140       -0.01350
Br         1.40120       -3.67840        1.36430
C          3.70210       -0.38980       -1.15720
C          3.07160        0.64790       -1.70640
P          4.70520       -3.25550       -0.20890
O          6.32900       -3.70410       -0.63060
C          7.06630       -2.56150       -1.11570
C          7.70070       -1.84150        0.07070
C          8.22480       -2.92980       -2.08060
O          5.32410       -2.73390        1.33110
C          4.57530       -3.09000        2.49440
C          4.31670       -4.59870        2.70870
C          5.36760       -2.63730        3.74180
O          4.12280       -4.86230       -0.25700
C          3.30490       -5.10650       -1.38470
C          4.05250       -4.94510       -2.71670
C          2.77690       -6.54550       -1.28140
H          2.41860       -0.09020        2.14250
H          0.95190        0.37500        3.08690
H          2.51460        2.23440        1.17670
H          2.56550        2.25000        2.98410
H          1.04600        2.68930        2.13090
H         -0.99080        1.59410        1.27210
H         -1.93650        0.46450       -0.92840
H          0.51260       -1.31160       -2.74880
H         -1.27020       -1.22850       -2.55260
H          0.56890       -3.30610       -1.30690
H         -0.56800       -3.57370       -2.67850
H         -1.21370       -3.19760       -1.02320
H          4.74140       -0.53070       -1.40740
H          2.00310        0.77700       -1.60910
H          3.61280        1.31300       -2.37220
H          6.44420       -1.85610       -1.71120
H          8.22060       -2.60130        0.69310
H          6.93530       -1.30640        0.65390
H          8.42180       -1.06140       -0.24430
H          8.92000       -3.66800       -1.63230
H          8.83380       -2.01570       -2.30360
H          7.87650       -3.29040       -3.07120
H          3.62800       -2.51860        2.49760
H          5.26450       -5.17040        2.78400
H          3.68690       -5.05440        1.94100
H          3.73930       -4.74150        3.65060
H          6.34700       -3.16480        3.80550
H          4.80620       -2.87680        4.67500
H          5.55690       -1.54560        3.73810
H          2.42770       -4.43840       -1.36050
H          4.94850       -5.60020       -2.74330
H          4.36610       -3.89260       -2.86750
H          3.37980       -5.21010       -3.56100
H          3.61440       -7.27810       -1.30260
H          2.09090       -6.77120       -2.12680
H          2.21430       -6.68840       -0.33410
