49

P          1.06550        0.07140        0.02490
C          0.22430        0.54420       -1.61590
C         -1.29000        0.44150       -1.85970
C          0.63200        1.95740       -2.08800
C          0.70890       -1.73940        0.31530
C         -0.78550       -2.10760        0.43020
C          1.36000       -2.64070       -0.71650
C          0.59780        1.36890        1.30050
C          1.05530        2.79870        0.99950
C         -0.90860        1.39790        1.62200
Au         3.52550        0.07140        0.02490
Br         3.52550       -0.62270        2.52010
C          3.52550        0.64750       -2.04650
C          4.09750        1.78230       -2.45580
N          5.62550        0.07140        0.02490
C          6.34650       -0.09600       -1.15320
F          5.76900       -0.38640       -2.33070
C          7.74420       -0.11460       -1.15900
C          8.44820        0.04890        0.00520
F          9.80460        0.04380        0.00730
C          7.75850        0.24420        1.19580
C          6.37180        0.23980        1.18460
F          5.82150        0.55700        2.37350
H          0.69770       -0.16180       -2.33030
H         -1.87500        1.14900       -1.25300
H         -1.70140       -0.56180       -1.78750
H         -1.48580        0.72380       -2.92410
H         -0.04590        2.73210       -1.70010
H          0.55300        2.02780       -3.19720
H          1.65330        2.23810       -1.80360
H          1.15490       -1.97590        1.30300
H         -1.30310       -2.07870       -0.53350
H         -1.32780       -1.48300        1.15760
H         -0.89630       -3.15180        0.77400
H          0.96570       -2.44760       -1.73400
H          1.14690       -3.71050       -0.46490
H          2.46450       -2.51080       -0.70560
H          1.11600        1.06180        2.23010
H          0.45650        3.28160        0.22040
H          2.13400        2.83340        0.75200
H          0.88210        3.43070        1.90600
H         -1.51130        1.70310        0.74650
H         -1.12330        2.13490        2.42100
H         -1.26640        0.43170        2.00290
H          3.02620        0.00900       -2.76710
H          4.59350        2.43200       -1.74440
H          4.07540        2.05100       -3.50750
H          8.27840       -0.29580       -2.08670
H          8.30230        0.41890        2.11160
