94

C          0.90100       -0.64300       -0.00200
N          0.24250       -0.03610       -1.07310
C          0.66530        0.16310       -2.49370
C          0.78390       -1.13770       -3.27370
C         -0.58700       -1.62620       -3.77300
C         -1.15020       -0.63120       -4.79860
C         -1.40430        0.71590       -4.11560
C         -0.12840        1.22130       -3.38820
C         -0.85010        0.57680       -0.51990
C         -0.80310        0.42180        0.84320
N          0.30250       -0.27800        1.17130
C          0.93370       -0.41350        2.50080
C          1.71230        0.89940        2.76340
C          0.82220        2.06470        3.19960
C          0.16240        1.70350        4.52190
C         -0.74480        0.47390        4.32310
C          0.04590       -0.73040        3.74760
Au         2.65840       -1.88140       -0.01350
Br         4.11960        0.18700        0.52950
C          1.44550       -3.59850       -0.46420
C          0.13750       -3.63220       -0.72010
P          4.66930       -3.29850       -0.02670
C          4.76090       -4.55170        1.44370
C          3.60560       -5.56430        1.52240
C          6.11020       -5.28560        1.60670
C          4.58770       -3.72810        2.75710
C          4.52270       -4.52740       -1.56560
C          4.51270       -3.54800       -2.76490
C          5.79010       -5.41320       -1.71500
C          3.36560       -5.52650       -1.92170
C          6.21520       -2.29450        0.28570
C          6.41730       -1.50800        1.43620
C          7.64180       -0.87600        1.69760
C          8.73680       -1.01200        0.82560
N         10.02930       -0.43170        1.13640
C         11.27390       -1.00510        0.65180
C         10.17500        0.72500        2.02180
C          8.52880       -1.75780       -0.35150
C          7.29510       -2.36410       -0.61780
H          1.67420        0.61360       -2.39400
H          1.29580       -1.88590       -2.64850
H          1.41940       -0.95170       -4.17030
H         -1.29960       -1.74250       -2.92810
H         -0.45610       -2.60460       -4.27160
H         -2.09840       -1.01020       -5.24110
H         -0.42200       -0.51420       -5.63520
H         -2.25070        0.60640       -3.41010
H         -1.71780        1.45280       -4.89840
H         -0.34660        2.17670       -2.85910
H          0.55710        1.49420       -4.22230
H         -1.58080        1.15760       -1.05220
H         -1.50120        0.86370        1.52540
H          1.67280       -1.24020        2.39950
H          2.20580        1.23270        1.84230
H          2.48040        0.72710        3.54500
H          0.05870        2.31540        2.43210
H          1.45270        2.97230        3.32860
H         -0.44110        2.56660        4.88450
H          0.95080        1.49490        5.27330
H         -1.58310        0.75260        3.65980
H         -1.18280        0.20200        5.30510
H         -0.62090       -1.60000        3.57520
H          0.75460       -1.01380        4.55680
H          1.91930       -4.52980       -0.40840
H         -0.47840       -2.74830       -0.76810
H         -0.32880       -4.60100       -0.89320
H          3.68260       -6.33860        0.76050
H          2.62110       -5.05820        1.53850
H          3.65190       -6.13550        2.47680
H          6.30990       -6.05300        0.86040
H          6.12960       -5.82930        2.57770
H          6.95510       -4.56650        1.61640
H          3.71450       -3.04010        2.69610
H          5.49880       -3.18660        3.04500
H          4.43560       -4.37590        3.64750
H          5.37690       -2.86020       -2.75840
H          3.58990       -2.92720       -2.73210
H          4.52310       -4.08090       -3.74250
H          6.74620       -4.89640       -1.58080
H          5.84700       -5.85620       -2.73570
H          5.75210       -6.29330       -1.06040
H          2.43680       -5.05010       -2.27820
H          3.16380       -6.31210       -1.18240
H          3.62440       -6.11140       -2.83200
H          5.64060       -1.35820        2.16030
H          7.71920       -0.32340        2.61780
H         11.12510       -1.93110        0.05120
H         11.92080       -1.29050        1.50180
H         11.81680       -0.26660        0.02010
H          9.20300        1.17030        2.30540
H         10.73180        1.51720        1.47770
H         10.73310        0.43840        2.92510
H          9.30990       -1.87920       -1.09090
H          7.22400       -2.90860       -1.53430
