35

C          1.02400       -0.65300       -0.05500
N          0.53490       -0.20310        1.05370
C          0.99040       -0.51180        2.38910
C         -0.62770        0.63080        0.80870
C         -0.50990        0.93620       -0.67880
N          0.28560       -0.15830       -1.15200
C          0.00840       -0.88440       -2.37380
Au         2.78020       -1.86970       -0.29550
Br         4.23340        0.26560       -0.48650
C          1.57380       -3.64230       -0.13690
C          1.42940       -4.98590       -0.25570
O          4.45470       -3.02990       -0.52480
C          4.43900       -4.26200        0.12780
C          5.77290       -4.99310       -0.00460
C          4.09390       -4.07480        1.61580
H          1.86500       -1.19400        2.37400
H          0.15780       -0.98510        2.95330
H          1.26180        0.43510        2.90120
H         -0.62790        1.57440        1.39310
H         -1.53630        0.02700        1.01710
H          0.14160        1.84060       -0.78560
H         -1.45630        1.13040       -1.22420
H         -1.09600       -1.04530       -2.44280
H          0.49310       -1.87610       -2.36620
H          0.32540       -0.28930       -3.25020
H          0.60260       -3.25530        0.15700
H          2.10420       -5.75380       -0.58620
H          0.45510       -5.41160       -0.02690
H          3.81880       -4.90230       -0.43870
H          6.59370       -4.44370        0.49700
H          6.02150       -5.13970       -1.07820
H          5.67600       -6.00360        0.45800
H          4.90340       -3.51390        2.12860
H          3.96440       -5.06060        2.10940
H          3.16670       -3.49140        1.76740
