75

C          0.88420       -0.62990        0.14090
N         -0.22190       -0.82280       -0.68770
C         -0.49290       -1.74010       -1.79320
C         -1.08880        0.15840       -0.39050
C         -0.56570        0.92240        0.59670
N          0.65050        0.44040        0.93480
C          1.33940        0.93680        2.10920
C          2.20860        0.10220        2.81140
C          2.67810        0.46750        4.07910
C          2.28950        1.68460        4.64720
C          1.48170        2.56210        3.92560
C          1.01420        2.19740        2.66380
Au         2.65840       -1.88140       -0.01350
Br         1.22770       -3.91840        0.70180
C          3.84610       -0.19050       -0.60730
C          3.47540        1.08400       -0.48190
P          4.73580       -3.25900       -0.10360
C          5.89450       -3.09850       -1.60840
C          6.59730       -1.73680       -1.88520
C          6.97570       -4.17520       -1.69930
C          4.92320       -3.27030       -2.79940
C          5.68960       -2.70060        1.47410
C          4.75190       -2.98860        2.66930
C          7.00000       -3.48730        1.79910
C          6.08230       -1.21450        1.56050
C          4.22000       -5.05150       -0.21550
C          3.10910       -5.48450       -0.93520
C          2.72880       -6.83370       -0.95460
C          3.48300       -7.83840       -0.29310
N          3.10960       -9.24670       -0.32860
C          1.91010       -9.73720       -0.99990
C          3.89290      -10.30490        0.30870
C          4.62130       -7.38990        0.40770
C          4.96220       -6.04130        0.44730
H          0.41530       -1.98330       -2.37610
H         -1.16850       -1.22640       -2.52450
H         -1.07780       -2.61330       -1.44370
H         -2.05450        0.30950       -0.85790
H         -1.09060        1.74510        1.06290
H          2.45390       -0.85340        2.39920
H          3.30920       -0.20960        4.63860
H          2.60760        1.94730        5.64730
H          1.18550        3.51190        4.35400
H          0.36970        2.89400        2.14640
H          4.84860       -0.27540       -0.87190
H          2.56700        1.36940       -0.01860
H          4.15680        1.89700       -0.71000
H          7.24490       -1.37650       -1.07950
H          5.94240       -0.96300       -2.31180
H          7.27110       -1.82600       -2.75610
H          7.77900       -4.02880       -0.96360
H          7.45470       -4.10170       -2.70150
H          6.54750       -5.18960       -1.62060
H          4.09590       -2.52010       -2.72710
H          4.46070       -4.27340       -2.82100
H          5.42870       -3.10860       -3.77080
H          4.46440       -4.06100        2.71130
H          3.82670       -2.40860        2.58910
H          5.22540       -2.73190        3.64600
H          6.87050       -4.54260        2.05520
H          7.45460       -3.12030        2.74630
H          7.77470       -3.37390        1.02920
H          5.21460       -0.54810        1.47130
H          6.87560       -0.94450        0.85930
H          6.53850       -1.00190        2.55590
H          2.49980       -4.77210       -1.46900
H          1.83370       -7.03500       -1.50540
H          1.29750       -8.97670       -1.49690
H          1.25220      -10.23710       -0.25940
H          2.19340      -10.47070       -1.78530
H          4.83670       -9.99280        0.77210
H          4.17080      -11.07530       -0.44300
H          3.28460      -10.78460        1.10420
H          5.28560       -8.03780        0.95220
H          5.83210       -5.82280        0.99740
