58

C          2.32700        0.03400        0.00000
N          1.47240        1.11040       -0.14010
C          1.72680        2.56220       -0.34140
C          2.64690        3.14410        0.72760
C          2.21760        2.89780       -1.75250
C          0.22900        0.56440       -0.08250
C          0.32690       -0.79240        0.11460
C         -0.79600       -1.60630        0.25080
C         -2.06070       -1.00900        0.14740
C         -2.17770        0.37730       -0.07100
C         -1.03020        1.17990       -0.18480
N          1.62620       -1.12660        0.19600
C          2.13470       -2.45850        0.60850
C          1.79440       -3.64970       -0.27630
C          1.64580       -3.54080       -1.66660
C          1.35290       -4.67430       -2.44000
C          1.20220       -5.92640       -1.83500
C          1.35080       -6.05130       -0.45430
C          1.65020       -4.92530        0.32050
Au         4.47690        0.05800        0.00140
Br         4.47180        0.35850        2.57390
C          4.48110       -0.19140       -2.13410
C          3.35980       -0.23840       -2.86300
N          6.57670        0.08150        0.00280
C          7.31980       -0.69670       -0.90670
C          6.78950       -1.79520       -1.81630
C          8.72050       -0.68590       -0.90620
C          9.40610        0.02770        0.04600
C          8.69190        0.73210        1.00300
C          7.28520        0.75440        0.96850
H          0.77310        3.11350       -0.24160
H          3.66990        2.72680        0.63680
H          2.23770        2.93260        1.73740
H          2.70020        4.24970        0.60380
H          3.22180        2.48080       -1.95440
H          2.26330        4.00520       -1.86960
H          1.49100        2.52180       -2.50490
H         -0.70860       -2.66910        0.42050
H         -2.95120       -1.61630        0.23810
H         -3.15830        0.82830       -0.14370
H         -1.15780        2.23920       -0.34690
H          1.63580       -2.66160        1.59140
H          3.21390       -2.44650        0.84420
H          1.76130       -2.58480       -2.15400
H          1.24180       -4.58540       -3.51230
H          0.97330       -6.80040       -2.43360
H          1.23460       -7.02280        0.01530
H          1.76310       -5.05410        1.39050
H          5.37260       -0.14740       -2.72680
H          2.37210       -0.17730       -2.43660
H          3.41900       -0.26260       -3.94590
H          5.75390       -2.10940       -1.59730
H          7.34540       -2.73780       -1.62880
H          6.97150       -1.55640       -2.89010
H          9.28320       -1.29650       -1.60890
H         10.48980       -0.01480        0.05920
H          9.23780        1.25330        1.77500
H          6.78800        1.32760        1.72640
