75

C          1.02400       -0.65300       -0.05500
N          0.62640       -0.12670        1.04930
C          1.27600       -0.28850        2.33740
C          1.65420        1.09500        2.89120
C          0.35040       -1.02370        3.31170
C         -0.59270        0.63610        0.84640
C         -0.69620        0.76870       -0.66750
N          0.19910       -0.25600       -1.13840
C          0.29170       -0.69900       -2.52130
C         -1.06780       -1.26060       -2.97300
C          0.70440        0.45600       -3.44230
Au         2.78020       -1.86970       -0.29550
Br         1.36400       -3.99700        0.12550
C          3.95580       -0.10380       -0.64500
C          4.49940        0.58080        0.34860
C          4.53640       -3.08650       -0.53600
N          4.64410       -4.50680       -0.52840
C          3.71580       -5.65530       -0.39960
C          3.17320       -6.16590       -1.76280
C          1.93150       -7.05890       -1.57960
C          1.49390       -7.73720       -2.87740
C          5.94600       -4.80260       -0.72280
C          6.67960       -3.67880       -0.80800
C          8.08910       -3.73280       -0.95640
C          8.72170       -4.97490       -1.03850
C          7.96090       -6.14360       -0.99580
C          6.56660       -6.07650       -0.83300
N          5.86680       -2.59620       -0.73630
C          6.54870       -1.26540       -0.88600
C          7.25260       -0.74200        0.41010
C          7.77030        0.72660        0.30990
C          8.78860        0.97250       -0.79350
H          2.20510       -0.88910        2.21610
H          0.75030        1.71330        3.08140
H          2.29280        1.63380        2.15950
H          2.20250        1.00180        3.84990
H         -0.58530       -0.44960        3.48420
H          0.85800       -1.16720        4.28820
H          0.08430       -2.01970        2.89900
H         -0.60120        1.64580        1.30380
H         -1.43570        0.02590        1.24070
H         -0.27810        1.74420       -1.00540
H         -1.75050        0.66460       -0.99350
H          1.05490       -1.50320       -2.60280
H         -1.85600       -0.47640       -2.94140
H         -1.37950       -2.09510       -2.31050
H         -1.01470       -1.63230       -4.01730
H         -0.03570        1.28450       -3.40320
H          0.76810        0.10050       -4.49370
H          1.69850        0.84690       -3.14320
H          3.81080        0.43740       -1.57550
H          4.54100        0.18560        1.35370
H          4.87600        1.57260        0.12950
H          3.08490       -5.59300        0.47830
H          4.21410       -6.52230        0.06900
H          3.98670       -6.74160       -2.26350
H          2.89610       -5.32470       -2.43360
H          1.09090       -6.42780       -1.22570
H          2.12370       -7.84750       -0.82310
H          1.29130       -6.99000       -3.67340
H          0.56190       -8.31610       -2.69400
H          2.27870       -8.44240       -3.22360
H          8.71540       -2.85120       -0.99910
H          9.79320       -5.03360       -1.15060
H          8.44290       -7.11050       -1.08170
H          6.03110       -7.00910       -0.81210
H          5.99660       -0.54630       -1.49550
H          7.33100       -1.34740       -1.66420
H          8.09810       -1.39960        0.68900
H          6.55410       -0.77880        1.26780
H          8.21800        1.03160        1.28270
H          6.94950        1.42820        0.11940
H          9.70760        0.38510       -0.60440
H          9.04550        2.05570       -0.81350
H          8.35850        0.71570       -1.78230
