96

P          0.92140       -0.02480       -0.05660
C          0.01340        0.04670        1.72240
C         -1.53370        0.01540        1.84160
C          0.45580       -1.11630        2.67160
C          0.42310        1.32410        2.48770
C          0.36770        1.68990       -1.00510
C          0.75150        3.07110       -0.38160
C          0.92360        1.83010       -2.44610
C         -1.16560        1.80110       -1.25720
C          0.06280       -1.65250       -0.82770
C         -1.49860       -1.52950       -0.93680
C          0.57990       -1.83320       -2.27010
C          0.17680       -3.06780       -0.16270
Au         3.38140       -0.02480       -0.05660
Br         3.63740        0.14340       -2.55890
C          3.61860       -0.65750        2.00400
C          3.66580        0.12680        3.11010
C          5.53140       -0.02480       -0.05660
N          6.28570       -1.13430       -0.04730
C          6.03910       -2.63440        0.01040
C          4.73320       -3.27710       -0.03270
C          3.46550       -2.64790       -0.29430
C          4.56300       -4.67810        0.07390
C          5.62760       -5.54210        0.15440
C          5.43340       -7.02980        0.20900
C          6.89430       -5.00680        0.14300
C          7.14060       -3.61490        0.07010
C          8.63940       -3.36250        0.04120
C          7.64940       -0.68500       -0.08270
C          7.65650        0.77170       -0.40070
N          6.33030        1.22120       -0.19070
C          6.09780        2.69090        0.04530
C          7.17260        3.69610       -0.01070
C          8.61720        3.54190       -0.44260
C          6.93420        5.03550        0.38540
C          5.69010        5.48210        0.77860
C          5.47830        6.92350        1.17280
C          4.65330        4.58020        0.80470
C          4.84190        3.22370        0.45580
C          3.67580        2.38610        0.56860
H         -1.97750       -0.95080        1.61210
H         -2.05980        0.83240        1.35370
H         -1.83050        0.14120        2.90890
H          0.16580       -2.11220        2.36540
H         -0.00770       -1.01270        3.67940
H          1.50720       -1.16670        2.89720
H         -0.16620        2.18660        2.16390
H          1.50410        1.51590        2.43410
H          0.15250        1.26820        3.56710
H          1.77140        3.38760       -0.61670
H          0.53040        3.24990        0.66110
H          0.20710        3.89870       -0.88900
H          1.99800        2.01440       -2.44130
H          0.52860        2.74540       -2.94450
H          0.64450        1.02490       -3.13320
H         -1.77880        1.79820       -0.36090
H         -1.51300        1.09730       -2.03410
H         -1.44400        2.76480       -1.73920
H         -1.91140       -0.54220       -1.01310
H         -2.04210       -1.97270       -0.09000
H         -1.91090       -2.13660       -1.77020
H          0.38620       -0.96150       -2.89070
H          0.05680       -2.66950       -2.78730
H          1.65370       -2.06200       -2.30700
H         -0.37390       -3.16470        0.77960
H          1.13910       -3.53480       -0.03640
H         -0.36050       -3.81140       -0.79630
H          3.71050       -1.70550        2.23260
H          3.59180        1.20710        3.13800
H          3.77600       -0.33090        4.08830
H          3.61490       -1.76610       -0.84320
H          2.83950       -2.64330        0.61670
H          2.95750       -3.24310       -1.07500
H          3.57330       -5.11950        0.05320
H          4.35880       -7.31320        0.21520
H          5.90740       -7.43600        1.12880
H          5.90710       -7.50210       -0.67660
H          7.70350       -5.72960        0.16740
H          9.25720       -4.27860        0.15510
H          8.96720       -2.72840        0.87660
H          8.94450       -3.00710       -0.96510
H          8.22470       -1.11700       -0.91540
H          8.07210       -0.83700        0.93040
H          7.86840        0.92340       -1.48220
H          8.39000        1.20570        0.30440
H          8.84700        2.74680       -1.15470
H          9.28730        3.53850        0.44730
H          8.90430        4.41690       -1.06500
H          7.73920        5.75970        0.36750
H          6.42420        7.50700        1.12470
H          5.09030        6.99120        2.21080
H          4.75080        7.39720        0.48130
H          3.67190        4.94380        1.11190
H          2.84690        2.87400        1.10950
H          3.99940        1.58660        1.18470
H          3.40620        2.04290       -0.44270
