67

P          0.99620        0.05390        0.08410
C          0.02320        1.47730        1.09970
C         -1.53180        1.54100        1.16580
C          0.41860        1.49490        2.60990
C          0.40900        2.87460        0.55990
C          0.61920        0.52520       -1.81630
C          1.33430        1.81370       -2.29560
C          1.08060       -0.53150       -2.85030
C         -0.89140        0.66400       -2.14700
C          0.24430       -1.59200        0.83260
C         -1.30500       -1.65830        0.68540
C          0.77900       -2.81400        0.07400
C          0.53480       -1.90370        2.32220
Au         3.45620        0.05390        0.08410
Br         3.45620       -1.95500       -1.55060
C          3.45620        1.72160        1.44110
C          3.59190        3.04520        1.32580
P          5.91620        0.05390        0.08410
C          7.37640       -0.75170       -0.63930
C          6.30670        1.79170       -0.31330
C          6.36590       -0.18700        1.81240
C          6.04750       -1.41460        2.43370
C          6.48020       -1.68110        3.73500
C          7.24340       -0.74530        4.43060
C          7.57610        0.47350        3.82110
C          7.15520        0.76450        2.52690
H         -1.99230        0.79470        1.80890
H         -2.05910        1.58960        0.21510
H         -1.83410        2.48050        1.68740
H         -0.01020        0.68450        3.18910
H          0.01170        2.39150        3.12810
H          1.47390        1.51710        2.83140
H         -0.21760        3.16070       -0.29880
H          1.45700        2.94310        0.26840
H          0.21410        3.69020        1.29400
H          2.41450        1.75420       -2.11640
H          0.94650        2.75040       -1.90100
H          1.16100        1.95290       -3.39500
H          2.15890       -0.48040       -3.03170
H          0.70620       -0.30550       -3.87470
H          0.70040       -1.54260       -2.64930
H         -1.36710        1.51000       -1.65800
H         -1.45390       -0.27340       -2.02180
H         -1.04310        0.90390       -3.22700
H         -1.67320       -1.30690       -0.27960
H         -1.83290       -1.14080        1.48670
H         -1.69730       -2.68920        0.80950
H          0.56840       -2.76650       -0.99940
H          0.28300       -3.74890        0.42180
H          1.85230       -2.95410        0.28260
H         -0.01860       -1.28100        3.02830
H          1.61520       -1.90140        2.55370
H          0.12500       -2.90980        2.57940
H          3.46260        1.34440        2.45600
H          3.68420        3.56300        0.38380
H          3.61860        3.62530        2.25120
H          7.31150       -0.63600       -1.74520
H          7.30700       -1.84240       -0.42820
H          8.33360       -0.34830       -0.26860
H          6.00840        1.99970       -1.36130
H          7.39890        1.96550       -0.22540
H          5.80990        2.49490        0.36270
H          5.48180       -2.16710        1.89920
H          6.24250       -2.63160        4.20320
H          7.59350       -0.96920        5.43030
H          8.17710        1.19040        4.35820
H          7.43330        1.69320        2.08030
