42

C         -0.29240       -1.15030        0.01400
N          0.79040       -0.24820       -0.14120
C          2.26430       -0.54400       -0.31310
C          0.22150        1.03550       -0.01070
Cl         0.89450        2.74640       -0.05280
C         -1.13360        0.87970        0.18600
Cl        -2.35080        2.17940        0.38000
N         -1.43590       -0.42990        0.20720
C         -2.82390       -0.88360        0.35810
Au        -0.48660       -3.37300        0.00630
Br        -1.38650       -3.31000        2.35750
C          0.27700       -3.38770       -1.96630
C          0.63240       -2.38220       -2.64920
P         -0.78410       -5.86280        0.00390
N         -1.54100       -6.43090        1.54890
C         -2.84120       -5.90870        1.86290
C         -1.53220       -7.90190        1.58310
O         -1.85170       -6.48420       -1.18970
C         -1.47350       -6.20470       -2.45230
O          0.75950       -6.63270        0.06990
C          1.45300       -6.25220        1.25230
H          2.51100       -1.63780       -0.35670
H          2.94330       -0.14990        0.50960
H          2.71410       -0.11680       -1.25100
H         -3.51990       -0.02360        0.46480
H         -2.95640       -1.48790        1.25190
H         -3.15730       -1.45190       -0.51800
H          0.30570       -4.15740       -2.66730
H          0.51860       -1.46690       -2.22990
H          1.03260       -2.48540       -3.64890
H         -2.87430       -4.83600        1.77150
H         -3.27420       -6.30840        2.76480
H         -3.55800       -6.34990        1.30310
H         -0.50660       -8.30050        1.46590
H         -2.15210       -8.29450        0.76200
H         -1.93340       -8.29300        2.53720
H         -1.97900       -6.74040       -3.25150
H         -0.75570       -6.89130       -2.48270
H         -1.34130       -5.14540       -2.64330
H          2.41600       -6.74140        1.38370
H          0.91250       -6.13730        2.20230
H          1.94250       -5.39540        1.04540
