103

C          1.02400       -0.65300       -0.05500
N          0.94410        0.64480       -0.38850
C          1.94490        1.64220       -0.86790
C          2.00180        1.80120       -2.39360
C          1.67680        3.07000       -0.30450
C         -0.36740        1.16950       -0.08790
C         -1.22700       -0.01170        0.11930
N         -0.29690       -1.03930        0.50090
C         -0.85420       -2.19190        1.22870
C         -1.30410       -1.76070        2.65320
C         -2.16470       -2.73850        0.58930
Au         2.78020       -1.86970       -0.29550
Br         3.62810       -1.13780       -2.52530
C          2.46620       -2.66050        1.70010
C          3.49470       -3.15960        2.42030
C          4.53640       -3.08650       -0.53600
N          4.50910       -4.43080       -0.57320
C          3.51120       -5.60110       -0.58770
C          2.13350       -5.56890       -1.12700
C          1.30380       -4.36800       -1.51240
C          1.37450       -4.10530       -3.00740
C         -0.19580       -4.54670       -1.14380
C          1.40990       -6.78900       -1.34270
C          1.84720       -8.00190       -0.97980
C          3.04410       -8.10100       -0.39700
C          3.93310       -7.00550       -0.23450
C          5.19920       -7.49230        0.50010
C          4.87930       -7.42010        1.99580
C          5.73540       -8.89180        0.05300
C          5.85240       -4.80710       -0.80560
C          6.51560       -3.60170       -1.36800
N          5.91800       -2.48460       -0.68960
C          6.63840       -1.12690       -0.48090
C          7.98360       -0.89410       -1.08750
C          8.95660       -1.97620       -1.63080
C         10.16640       -1.52020       -2.46610
C          9.56650       -2.76220       -0.42030
C          8.52410        0.41300       -1.14600
C          7.92270        1.50020       -0.60080
C          6.81710        1.33590        0.15070
C          6.18750        0.08970        0.32140
C          5.08940        0.23250        1.41760
C          4.61890        1.61490        1.98190
C          3.93900       -0.34710        0.87160
H          2.91300        1.50780       -0.46280
H          1.01670        2.05990       -2.81940
H          2.33000        0.91620       -2.91310
H          2.74580        2.59380       -2.66270
H          0.73550        3.51590       -0.69910
H          2.49980        3.76450       -0.59430
H          1.64300        3.06210        0.80420
H         -0.80060        1.79320       -0.90870
H         -0.29000        1.75260        0.85240
H         -1.64370       -0.31920       -0.86790
H         -2.05250        0.21360        0.81670
H         -0.11400       -2.99650        1.27570
H         -2.14760       -1.02820        2.61030
H         -0.49740       -1.28230        3.23850
H         -1.70710       -2.62850        3.21940
H         -3.02560       -2.05740        0.74600
H         -2.42170       -3.71880        1.04940
H         -2.16160       -2.82460       -0.49390
H          1.58110       -2.47390        2.27750
H          4.50060       -3.25450        2.02160
H          3.38140       -3.39170        3.47570
H          1.65220       -3.50600       -0.93830
H          1.00300       -4.99150       -3.56690
H          2.41860       -3.88540       -3.29640
H          0.72810       -3.23480       -3.25920
H         -0.77910       -5.29950       -1.71450
H         -0.67970       -3.63290       -1.47450
H         -0.34330       -4.79080       -0.06730
H          0.44040       -6.86670       -1.79240
H          1.23010       -8.88600       -1.12610
H          3.24660       -9.10790       -0.09740
H          6.08180       -6.90800        0.31770
H          3.97870       -8.02910        2.23620
H          4.64980       -6.36280        2.25790
H          5.72930       -7.76480        2.61320
H          5.09950       -9.76470        0.30070
H          6.69530       -9.12690        0.55160
H          5.90180       -8.88950       -1.04820
H          5.95020       -5.61680       -1.57030
H          6.33620       -4.96270        0.17950
H          6.32380       -3.48200       -2.46080
H          7.53350       -3.87330       -1.14110
H          8.43560       -2.57030       -2.38820
H         10.89610       -0.93440       -1.86660
H          9.81860       -0.93770       -3.34190
H         10.70650       -2.41710       -2.84240
H         10.22280       -2.10390        0.19130
H         10.18830       -3.60990       -0.78460
H          8.83020       -3.17100        0.30280
H          9.46000        0.64970       -1.61270
H          8.36850        2.48650       -0.68570
H          6.48590        2.24900        0.62180
H          5.38430       -0.34410        2.32960
H          4.26630        2.30520        1.18450
H          5.40270        2.10350        2.58890
H          3.74830        1.48060        2.67370
H          3.87270       -0.11460       -0.18790
H          3.00510       -0.20490        1.45140
H          4.26940       -1.34820        0.92560
