58

P          1.09840       -0.00790       -0.01580
C          0.10640       -0.51360        1.64650
C         -1.45040       -0.55310        1.71620
C          0.49930       -1.93770        2.15210
C          0.48630        0.44500        2.80020
C          0.72770        1.94000       -0.19020
C          1.41930        2.81870        0.88330
C          1.20150        2.58370       -1.52080
C         -0.78240        2.29130       -0.18140
C          0.37520       -1.26270       -1.34560
C         -1.15890       -1.16890       -1.47000
C          0.91580       -0.93600       -2.75490
C          0.71390       -2.75790       -1.14530
Au         3.55840       -0.00790       -0.01580
Br         3.55840        0.89890       -2.44190
C          3.55840       -0.76060        1.99820
C          3.69020       -0.21190        3.20870
N          5.65840       -0.00790       -0.01580
C          6.36350        0.04480       -1.19880
C          7.75880       -0.05680       -1.22930
F          8.40590       -0.11180       -2.42070
C          8.46990       -0.14580       -0.04580
C          7.77610       -0.15940        1.15570
C          6.37870       -0.12380        1.14940
H         -1.91670       -1.38830        1.19910
H         -1.97580        0.36840        1.47020
H         -1.76010       -0.75980        2.76860
H          0.05720       -2.74660        1.57780
H          0.09370       -2.13570        3.16920
H          1.55670       -2.13860        2.23940
H         -0.13380        1.35530        2.78280
H          1.53580        0.73060        2.78620
H          0.26940        0.01600        3.80480
H          2.51080        2.63040        0.89640
H          1.03160        2.74390        1.89530
H          1.26010        3.89960        0.65810
H          2.27880        2.78500       -1.51200
H          0.82150        3.62400       -1.63750
H          0.84190        2.06800       -2.42300
H         -1.25860        2.09830        0.77720
H         -1.33270        1.84650       -1.02670
H         -0.94450        3.38540       -0.31060
H         -1.54770       -0.14690       -1.46800
H         -1.67940       -1.76540       -0.71820
H         -1.53710       -1.64070       -2.40480
H          0.69210        0.09720       -3.05120
H          0.44970       -1.58360       -3.52720
H          1.99120       -1.14700       -2.80190
H          0.16690       -3.23130       -0.33160
H          1.79990       -2.94410       -1.05000
H          0.33200       -3.34270       -2.01470
H          3.55760       -1.84300        1.97380
H          3.78060        0.84920        3.37610
H          3.70920       -0.89110        4.06480
H          5.88610        0.05400       -2.15670
H          9.55280       -0.22060       -0.05830
H          8.31890       -0.21380        2.08780
H          5.91380       -0.13540        2.10840
