83

P          0.92140        0.03730        0.04930
C         -0.05390       -1.45710       -0.86660
C         -1.60810       -1.51050       -0.92630
C          0.34120       -1.59350       -2.37310
C          0.32170       -2.82180       -0.23620
C          0.50030       -0.26530        1.97600
C          1.12940       -1.54380        2.58660
C          1.00380        0.86090        2.92850
C         -1.00890       -0.31130        2.31270
C          0.18700        1.61860       -0.84470
C         -1.36640        1.69490       -0.72950
C          0.71580        2.89510       -0.17650
C          0.49750        1.81970       -2.35010
Au         3.38140        0.03730        0.04930
Br         3.38140        2.16610        1.52470
C          3.38140       -1.72970       -1.17540
C          3.57680       -3.02570       -0.93220
P          5.84140        0.03730        0.04930
C          6.82580        1.67080        0.03710
C          6.65120        2.60210        1.26850
C          8.33160        1.48980       -0.18650
C          6.25500        2.46020       -1.16640
C          6.11700       -0.52510        1.75260
C          5.02710       -0.80570        2.57290
C          5.20270       -1.40390        3.82510
C          6.48410       -1.72440        4.27220
C          7.57100       -1.42690        3.48180
C          7.40500       -0.84080        2.21870
C          6.42830       -0.99720       -1.32190
C          6.12290       -0.67910       -2.65660
C          6.65270       -1.43850       -3.70770
C          7.48770       -2.52290       -3.43620
C          7.78080       -2.86070       -2.11210
C          7.25280       -2.10420       -1.06200
H         -2.06880       -0.78640       -1.59120
H         -2.12810       -1.52160        0.02810
H         -1.92390       -2.46920       -1.40230
H         -0.05190       -0.81330       -3.01350
H         -0.09720       -2.50920       -2.82880
H          1.39130       -1.68820       -2.58940
H         -0.30360       -3.04200        0.64040
H          1.37440       -2.89970        0.03730
H          0.08750       -3.67920       -0.90840
H          2.20850       -1.59210        2.40800
H          0.69470       -2.48610        2.27390
H          0.96660       -1.56890        3.68910
H          2.08120        0.78910        3.11150
H          0.61990        0.72980        3.96560
H          0.65570        1.86630        2.65240
H         -1.51560       -1.17520        1.88850
H         -1.53090        0.63750        2.11160
H         -1.17600       -0.45870        3.40360
H         -1.76090        1.33980        0.22260
H         -1.87780        1.17520       -1.54520
H         -1.75520        2.72510       -0.86720
H          0.50530        2.92730        0.89640
H          0.22210        3.80190       -0.59580
H          1.78890        3.01890       -0.39390
H         -0.05260        1.15500       -3.01920
H          1.58090        1.79080       -2.56830
H          0.09970        2.80710       -2.68530
H          3.35170       -1.44600       -2.21810
H          3.71350       -3.44100        0.05350
H          3.59550       -3.69120       -1.79870
H          6.88960        2.10640        2.22620
H          5.67460        3.08290        1.32020
H          7.30820        3.49460        1.16480
H          8.84010        1.08100        0.69740
H          8.79560        2.48830       -0.36580
H          8.52450        0.86840       -1.08330
H          5.15150        2.58590       -1.06120
H          6.44320        1.95480       -2.12960
H          6.68840        3.47960       -1.25200
H          4.03900       -0.59420        2.22360
H          4.34900       -1.66040        4.42930
H          6.62110       -2.20600        5.23770
H          8.58030       -1.68530        3.81100
H          8.27370       -0.70870        1.60430
H          5.48160        0.15550       -2.89600
H          6.42290       -1.18140       -4.73160
H          7.90810       -3.10380       -4.24750
H          8.43100       -3.69880       -1.90160
H          7.51240       -2.37530       -0.04760
