42

C          1.02400       -0.65300       -0.05500
N          0.95790        0.61750       -0.30350
C          2.00890        1.47630       -0.80440
C         -0.34790        1.14870       -0.01550
C         -1.20930       -0.09760        0.14980
N         -0.26120       -1.17150        0.26820
C         -0.63940       -2.54850        0.39460
C         -2.00820       -2.90020        0.36900
C         -2.40900       -4.23280        0.45250
C         -1.45110       -5.23630        0.57980
C         -0.09200       -4.90610        0.61660
C          0.31510       -3.57150        0.52270
Au         2.78020       -1.86970       -0.29550
Br         4.06970       -0.15470        1.01030
C          2.73490       -1.48660       -2.37620
C          1.72060       -0.94140       -3.05310
N          4.49560       -3.05820       -0.53040
C          4.68820       -3.82600       -1.65760
F          3.74350       -3.92660       -2.62080
C          5.81310       -4.64640       -1.79190
C          6.76880       -4.67680       -0.78610
F          7.86970       -5.45870       -0.90820
C          6.56440       -3.93270        0.36570
C          5.40890       -3.15850        0.49450
F          5.23790       -2.51140        1.66600
H          2.90460        0.91340       -1.11820
H          2.26620        2.24770       -0.04930
H          1.64020        1.99140       -1.71870
H         -0.75250        1.79420       -0.82570
H         -0.27410        1.72090        0.93550
H         -1.78490       -0.26780       -0.78980
H         -1.90290        0.00070        1.01190
H         -2.78420       -2.15190        0.26590
H         -3.46020       -4.48360        0.41910
H         -1.76510       -6.27090        0.64510
H          0.64360       -5.69170        0.71870
H          1.36820       -3.34920        0.55650
H          3.61170       -1.72760       -2.96230
H          0.79410       -0.64400       -2.58820
H          1.82040       -0.78620       -4.12350
H          5.93160       -5.27220       -2.66730
H          7.28990       -3.96560        1.16920
