51

C          0.90100       -0.64300       -0.00200
N          0.08150       -0.49020        1.07010
C          0.18080       -1.05320        2.40730
C         -0.86290        0.39630        0.71330
C         -0.59820        0.81700       -0.55810
N          0.51860        0.19760       -1.00770
C          1.06910        0.39960       -2.33130
C          0.74830        1.57090       -3.05700
C          1.24290        1.78160       -4.34300
C          2.05210        0.82110       -4.94310
C          2.37330       -0.35110       -4.25080
C          1.89350       -0.56130       -2.94780
Au         2.65840       -1.88140       -0.01350
Br         4.08950        0.14240        0.73770
C          1.47050       -3.56150       -0.63710
C          0.13530       -3.52070       -0.71310
N          4.37500       -3.09110       -0.02470
C          5.60500       -2.46970       -0.10120
C          6.80750       -3.16280       -0.23660
C          6.81380       -4.53390       -0.30790
C          5.62580       -5.22690       -0.16600
C          5.64260       -6.63120       -0.19780
C          4.47630       -7.37070       -0.01790
C          3.29540       -6.70920        0.33480
C          1.97000       -7.40840        0.49340
O          0.98970       -6.75690        0.82520
C          1.71560       -8.84310        0.10950
C          3.32840       -5.31080        0.46270
C          4.41270       -4.50040        0.04870
H          1.08600       -1.68150        2.51180
H         -0.73450       -1.63220        2.64510
H          0.25330       -0.21020        3.13490
H         -1.67570        0.73760        1.34200
H         -1.20140        1.52560       -1.10850
H          0.12480        2.34320       -2.63230
H          0.99150        2.69310       -4.87140
H          2.42560        0.98810       -5.94560
H          2.99130       -1.09780       -4.73160
H          2.14310       -1.48170       -2.44110
H          1.85850       -4.47930       -1.03060
H         -0.45170       -2.66560       -0.42220
H         -0.40870       -4.38040       -1.09360
H          5.73240       -1.42130       -0.16200
H          7.74190       -2.62010       -0.32480
H          7.75680       -5.06010       -0.43580
H          6.56890       -7.17210       -0.39020
H          4.52680       -8.44100       -0.11420
H          2.61670       -9.39920       -0.19790
H          1.01280       -8.85730       -0.75480
H          1.23370       -9.37700        0.95310
H          2.46300       -4.86500        0.89470
