32

N         -1.44910       -0.02910       -0.06580
C         -0.65960       -1.14550        0.01330
C          0.71620       -1.03260        0.30010
C          1.25800        0.22820        0.55330
Cl         2.94890        0.39040        1.00860
C          0.43890        1.35350        0.47230
C         -0.92230        1.21390        0.14780
Au        -3.47560       -0.20170       -0.28210
Br        -3.74600       -0.43710        2.28300
C         -3.25120       -0.00640       -2.41140
C         -2.05740        0.17250       -2.98740
N         -5.53070       -0.29860       -0.55240
C         -6.28980       -0.98320        0.38200
C         -7.66610       -1.19300        0.18640
C         -8.46430       -2.06290        1.11220
C         -8.28330       -0.62920       -0.92710
C         -7.53390        0.11660       -1.82240
C         -6.16030        0.24580       -1.63730
H         -1.07080       -2.13130       -0.17290
H          1.35070       -1.90910        0.34470
H          0.84860        2.33580        0.68240
H         -1.55720        2.06960        0.13740
H         -4.06260       -0.10730       -3.11100
H         -1.14010        0.23580       -2.42500
H         -1.97420        0.22760       -4.06770
H         -5.84400       -1.43670        1.23730
H         -7.85110       -2.44980        1.95380
H         -8.82690       -2.93970        0.53170
H         -9.34090       -1.51770        1.51580
H         -9.34140       -0.77200       -1.09780
H         -8.00920        0.58390       -2.67490
H         -5.64230        0.85740       -2.34190
