48

P          1.00210       -0.05600       -0.08280
O         -0.43100        0.83520       -0.36510
C         -0.18510        2.15010        0.12240
O          0.69470       -1.27020       -1.24280
C          0.78880       -0.74080       -2.54260
O          0.69600       -0.25710        1.58380
C         -0.64440       -0.71130        1.78150
Au         3.46210       -0.05600       -0.08280
Br         3.28660       -2.28620        1.00190
C          3.45080        1.81170       -0.96680
C          3.53410        2.90410       -0.20910
P          5.92210       -0.05600       -0.08280
C          6.97880        0.13940        1.43680
C          6.77380        1.55580        2.00920
C          6.55220       -0.84530        2.54460
C          6.28040       -1.85080       -0.37440
C          5.65370       -2.20840       -1.72990
C          7.79160       -2.14060       -0.46590
C          6.44430        1.38280       -1.07560
H         -0.77240        2.88810       -0.45430
H          0.87120        2.49180        0.01740
H         -0.45250        2.22700        1.19840
H          0.04040       -1.26710       -3.17540
H          1.79750       -0.93750       -2.95420
H          0.53430        0.33930       -2.62620
H         -0.74670       -1.13410        2.78950
H         -0.92550       -1.52210        1.07870
H         -1.37480        0.12870        1.73350
H          3.38540        1.89870       -2.04580
H          3.60620        2.81060        0.86940
H          3.53970        3.88960       -0.66210
H          8.05600        0.03440        1.20770
H          5.69700        1.74270        2.22570
H          7.14120        2.33710        1.31650
H          7.34660        1.68490        2.95130
H          5.47100       -0.72080        2.77860
H          7.13050       -0.65470        3.47300
H          6.73780       -1.90070        2.28040
H          5.85200       -2.50760        0.39820
H          6.10500       -1.58930       -2.53900
H          4.56100       -2.02870       -1.72440
H          5.83330       -3.27810       -1.97380
H          8.27420       -1.48760       -1.22530
H          7.96120       -3.20060       -0.75040
H          8.30580       -2.00510        0.50320
H          6.12110        2.34470       -0.64040
H          6.01220        1.28450       -2.09310
H          7.55040        1.37490       -1.17070
