64

N         -1.47300       -0.40940        0.04860
C         -0.64670        0.65630       -0.17100
C          0.74580        0.49250       -0.16300
F          1.56290        1.51680       -0.51520
C          1.28730       -0.74740        0.16760
C          0.43790       -1.81600        0.44030
C         -0.94490       -1.63950        0.31960
Au        -3.47560       -0.20170       -0.28210
Br        -3.30460       -2.30350       -1.78590
C         -3.61770        1.54300        0.96620
C         -2.65410        2.14060        1.67410
P         -5.96600       -0.06180       -0.69460
C         -6.93650        1.60620       -0.71660
C         -6.29770        2.39040       -1.88990
C         -8.45030        1.49860       -0.98160
C         -6.74120        2.59360        0.49710
C         -6.51110       -1.36170       -2.05970
C         -6.29640       -2.91110       -1.78100
C         -8.04080       -1.40000       -2.30580
C         -5.86760       -0.93310       -3.40420
C         -6.48290       -0.82200        0.93540
C         -7.42660       -0.25320        1.80250
C         -7.73630       -0.80310        3.04380
C         -7.15900       -2.00400        3.50250
N         -7.43450       -2.51660        4.84420
C         -8.21650       -1.78260        5.84220
C         -6.88870       -3.76840        5.35960
C         -6.28970       -2.65460        2.58550
C         -5.95420       -2.06830        1.34260
H         -1.05710        1.60500       -0.48810
H          2.36170       -0.88800        0.19390
H          0.84580       -2.77860        0.71610
H         -1.60320       -2.47590        0.51010
H         -4.55190        1.94950        1.08750
H         -1.63200        1.81460        1.70720
H         -2.90340        3.00600        2.28080
H         -6.46840        1.92290       -2.86830
H         -5.19110        2.44540       -1.74020
H         -6.67690        3.43060       -1.95200
H         -8.65450        1.27240       -2.02810
H         -8.93150        2.49480       -0.90270
H         -8.97620        0.79810       -0.31020
H         -5.85560        3.25060        0.37970
H         -6.69300        2.17780        1.51510
H         -7.52750        3.37230        0.51600
H         -6.99030       -3.28580       -1.00360
H         -5.39010       -3.40660       -1.46740
H         -6.52520       -3.48030       -2.71790
H         -8.58600       -1.63950       -1.36640
H         -8.31230       -2.18260       -3.05660
H         -8.43570       -0.51800       -2.79270
H         -4.77850       -0.77310       -3.34180
H         -6.29190        0.02640       -3.74320
H         -6.07690       -1.65260       -4.22480
H         -7.96160        0.63080        1.57240
H         -8.44050       -0.22960        3.61400
H         -8.62050       -0.81370        5.52590
H         -7.57790       -1.56200        6.72540
H         -9.07950       -2.39620        6.17690
H         -6.29120       -4.35010        4.64710
H         -7.71750       -4.42600        5.70040
H         -6.23530       -3.55350        6.23450
H         -5.82460       -3.60150        2.80060
H         -5.26160       -2.60850        0.71240
