38

N         -0.65900       -1.22800       -0.05100
C         -1.41340       -0.09870        0.08430
C         -2.90610       -0.17920        0.05460
C         -0.78650        1.15240        0.17050
C          0.60650        1.22580        0.13140
C          1.35700        0.06030       -0.01800
C          0.69820       -1.16570       -0.13000
Au        -1.57560       -3.10440       -0.27260
Br        -1.72910       -3.33350        2.30270
C         -1.44830       -2.91410       -2.41040
C         -1.93490       -3.73160       -3.34810
N         -2.49230       -4.98070       -0.49410
C         -3.73260       -5.08400       -1.07490
C         -4.50040       -3.86490       -1.48750
C         -4.30870       -6.34200       -1.29060
C         -3.61990       -7.48730       -0.91100
C         -2.37000       -7.37370       -0.30920
C         -1.80800       -6.10510       -0.09030
C         -0.43860       -6.00230        0.50090
H         -3.23800       -1.22810       -0.02620
H         -3.27550        0.37210       -0.84420
H         -3.34060        0.27450        0.96270
H         -1.37100        2.06080        0.25160
H          1.10210        2.18540        0.20090
H          2.43770        0.10620       -0.05570
H          1.26880       -2.07660       -0.25170
H         -0.86670       -2.06600       -2.75740
H         -2.46470       -4.64040       -3.13240
H         -1.75590       -3.50770       -4.39460
H         -3.93640       -2.94580       -1.25820
H         -5.46790       -3.83080       -0.94630
H         -4.70420       -3.89310       -2.57990
H         -5.27890       -6.43510       -1.76280
H         -4.04630       -8.46550       -1.08780
H         -1.84250       -8.27160       -0.02110
H          0.00030       -7.00510        0.69360
H         -0.47220       -5.49910        1.48300
H          0.23530       -5.44550       -0.17550
