20

N         -1.39000       -0.11200       -0.05400
C         -0.79370        1.12000       -0.05100
C          0.59220        1.25720        0.05110
C          1.38640        0.12250        0.16360
Cl         3.13000        0.27390        0.29100
C          0.78100       -1.13310        0.18880
C         -0.60990       -1.23130        0.07100
Au        -3.47560       -0.20170       -0.28210
Br        -3.71290        2.03120        1.00850
C         -3.27870       -2.05540       -1.35340
C         -4.26170       -2.67390       -2.01180
C         -5.61100       -0.29360       -0.51560
O         -6.82070       -0.34570       -0.64790
H         -1.37320        2.01780       -0.17490
H          1.03970        2.24280        0.03040
H          1.38570       -2.02710        0.29110
H         -1.02950       -2.21540        0.13090
H         -2.33530       -2.56870       -1.39490
H         -5.27100       -2.29560       -2.05850
H         -4.04610       -3.61510       -2.51320
