49

N         -0.65900       -1.22800       -0.05100
C          0.38700       -1.05500        0.81780
C          0.99810       -2.21870        1.51180
C          0.93950        0.22740        0.97720
C          0.39370        1.30940        0.28330
C         -0.66710        1.10170       -0.59850
C         -1.16630       -0.19430       -0.77250
Au        -1.57560       -3.10440       -0.27260
Br        -0.21060       -3.51590       -2.43480
C         -2.70880       -2.76270        1.52240
C         -2.70010       -1.61870        2.20890
P         -2.64940       -5.30240       -0.53210
N         -3.77510       -6.34950        0.42980
C         -3.24620       -6.65670        1.77620
C         -5.00700       -5.53920        0.70260
N         -3.77170       -5.02960       -1.92950
C         -3.14330       -4.47070       -3.11990
C         -4.59940       -6.19080       -2.33300
N         -1.25040       -6.36490       -0.81560
C         -0.26870       -6.27480        0.29040
C         -1.61580       -7.75600       -1.08720
H          0.45620       -3.14870        1.25260
H          0.97840       -2.07460        2.60180
H          2.04780       -2.32600        1.17030
H          1.78320        0.38450        1.64100
H          0.80100        2.30310        0.42090
H         -1.10250        1.93380       -1.13180
H         -2.00350       -0.36020       -1.43660
H         -3.33530       -3.54740        1.89060
H         -2.12000       -0.76250        1.90100
H         -3.31540       -1.52280        3.09810
H         -2.50990       -7.48580        1.75230
H         -4.06540       -7.05240        2.43790
H         -2.81910       -5.75370        2.28980
H         -5.33340       -4.87130       -0.11570
H         -4.94580       -4.87500        1.58330
H         -5.86490       -6.22740        0.90930
H         -2.76720       -3.45350       -2.89360
H         -3.89980       -4.30070       -3.91730
H         -2.36850       -5.15770       -3.51640
H         -5.22480       -6.60600       -1.52960
H         -3.99790       -7.01160       -2.76430
H         -5.34060       -5.87950       -3.10010
H         -0.02070       -5.21530        0.49290
H          0.66870       -6.79050       -0.00150
H         -0.62030       -6.72960        1.21200
H         -2.18270       -7.83820       -2.02610
H         -2.20900       -8.20930       -0.26850
H         -0.71030       -8.38570       -1.21580
