29

N         -1.41380        0.01830       -0.05330
C         -0.79430        1.23110        0.13320
C          0.60040        1.31090        0.13170
F          1.20000        2.52690        0.18250
C          1.38070        0.16040        0.04660
C          0.75850       -1.07480       -0.01120
C         -0.63620       -1.10870       -0.05850
Au        -3.47560       -0.20170       -0.28210
Br        -3.72470        1.93980        1.15320
C         -3.26890       -1.97940       -1.47350
C         -2.19180       -2.36440       -2.17410
N         -5.53190       -0.29900       -0.49460
C         -6.15400       -1.49070       -0.74840
C         -7.52940       -1.59690       -0.99060
F         -8.10680       -2.81220       -1.16440
C         -8.28600       -0.44110       -1.03670
C         -7.67260        0.78110       -0.77720
C         -6.30360        0.83830       -0.45890
H         -1.34860        2.13060        0.13750
H          2.46030        0.22200        0.03680
H          1.34230       -1.98710       -0.02640
H         -1.07990       -2.10660       -0.06770
H         -4.08110       -2.60900       -1.76350
H         -1.29700       -1.76800       -2.25910
H         -2.24750       -3.24320       -2.81340
H         -5.66000       -2.43910       -0.65010
H         -9.34240       -0.49900       -1.26400
H         -8.25560        1.69240       -0.83830
H         -5.86240        1.79960       -0.34410
