50

P          0.95960       -0.06870       -0.06040
O         -0.29110       -1.25250       -0.01270
C          0.03580       -2.18120       -1.04630
C         -0.66380       -3.52510       -0.92130
O          0.57240        0.80700        1.35510
C          0.61630       -0.01220        2.49600
C         -0.06770        0.74690        3.62710
O          0.51890        0.53870       -1.61530
C         -0.87610        0.87300       -1.60890
C         -1.40210        1.05890       -3.02380
Au         3.41960       -0.06870       -0.06040
Br         3.41960        2.51800       -0.19140
C          3.41960       -2.21590        0.04840
C          3.45610       -3.05270       -0.98760
P          5.87960       -0.06870       -0.06040
O          6.78500       -0.57910       -1.45710
C          8.18530       -0.50010       -1.30890
C          8.55270       -0.10790        0.10730
C         10.07560       -0.08750        0.29680
C          7.94670        1.32070        0.33980
O          6.57830        1.47680       -0.04310
O          6.47430       -1.46090        0.69100
C          7.84510       -1.17930        1.03310
H          1.09550       -2.45180       -1.02210
H         -0.21110       -1.77800       -2.05210
H         -0.41260       -4.01960        0.04320
H         -0.29390       -4.18530       -1.74240
H         -1.76350       -3.41560       -1.02940
H          1.67400       -0.21720        2.77220
H          0.05550       -0.96210        2.36210
H          0.44520        1.71500        3.80040
H         -0.04380        0.14760        4.55880
H         -1.12510        0.94940        3.35430
H         -1.07120        1.78180       -1.00320
H         -1.54130        0.06490       -1.24040
H         -0.91990        1.92890       -3.50600
H         -2.50370        1.22640       -2.98690
H         -1.22130        0.13980       -3.62360
H          3.42330       -2.63290        1.05030
H          3.45310       -2.69390       -2.00800
H          3.46380       -4.12350       -0.79400
H          8.59010        0.23170       -2.04340
H          8.61040       -1.49910       -1.54500
H         10.54660        0.63650       -0.40560
H         10.51080       -1.08790        0.08700
H         10.33730        0.20430        1.33620
H          8.51730        2.03500       -0.29340
H          8.08280        1.63860        1.39380
H          8.39860       -2.13310        0.91190
H          7.93100       -0.87800        2.09850
