29

N         -0.67900        1.19300        0.00100
C          0.28490        0.93300        0.94730
F          0.43860        1.76390        2.00850
C          0.97200       -0.29190        0.99060
C          0.71170       -1.26200        0.03690
F          1.40230       -2.43230        0.03640
C         -0.29100       -1.03380       -0.89310
C         -1.01200        0.17420       -0.86930
F         -1.92270        0.35800       -1.85210
Au        -1.69140        3.03290        0.00550
Br        -3.79430        1.62130       -0.30620
C          0.00940        4.27620        0.25100
C          1.26970        3.94150        0.46920
O         -2.67960        4.82890        0.00990
C         -4.07180        4.66940        0.12100
C         -4.42710        4.02620        1.48960
C         -4.75970        6.03690        0.11950
H          1.68940       -0.50290        1.77520
H         -0.50050       -1.79380       -1.63690
H         -0.17840        5.33440        0.09320
H          1.62330        2.93870        0.61540
H          2.06390        4.68090        0.50150
H         -4.43390        4.10780       -0.76010
H         -4.26140        4.72270        2.33700
H         -3.79870        3.15810        1.75530
H         -5.49540        3.71320        1.48450
H         -4.45320        6.62380        1.01720
H         -5.86330        5.90020        0.16470
H         -4.50080        6.62210       -0.78260
