36

N         -1.43520       -0.12940       -0.16630
C         -0.80890        1.06410       -0.35590
C          0.59920        1.15910       -0.36450
O          1.25370        2.30370       -0.69570
C          0.64280        3.46760       -1.11810
C          1.34640        0.02140       -0.05530
C          0.69690       -1.18930        0.18340
C         -0.70050       -1.26030        0.05820
Au        -3.47560       -0.20170       -0.28210
Br        -3.20100       -2.06360       -2.06140
C         -3.70370        1.34390        1.19500
C         -2.72720        1.95800        1.87290
N         -5.51870       -0.38720       -0.39660
C         -6.33860        0.69420       -0.22840
N         -7.68920        0.56040       -0.25160
C         -8.27240       -0.65820       -0.37660
O         -9.61870       -0.79790       -0.29610
C        -10.48510        0.25580       -0.07750
C         -7.46380       -1.77880       -0.56540
C         -6.07800       -1.61210       -0.62410
H         -1.41440        1.92460       -0.59930
H          1.41330        4.21150       -1.40520
H          0.02470        3.88220       -0.29620
H          0.00620        3.27170       -2.01080
H          2.43000        0.07120       -0.01670
H          1.27760       -2.06620        0.44910
H         -1.19710       -2.19940        0.26030
H         -4.69610        1.65750        1.47570
H         -1.68380        1.72870        1.77070
H         -2.97720        2.71940        2.60450
H         -5.93500        1.69690       -0.19240
H        -11.52660       -0.12290       -0.01810
H        -10.41770        0.98570       -0.91180
H        -10.24270        0.76390        0.88170
H         -7.89440       -2.77060       -0.62730
H         -5.45800       -2.48510       -0.69970
