40

N         -0.67900        1.19300        0.00100
C         -0.52050        0.52610       -1.17960
F         -1.02610        1.04810       -2.32400
C          0.13040       -0.70940       -1.21270
C          0.63020       -1.24930       -0.02800
F          1.27480       -2.44200       -0.04270
C          0.46230       -0.55830        1.17220
C         -0.21350        0.66550        1.16990
F         -0.35780        1.35020        2.33050
Au        -1.69140        3.03290        0.00550
Br        -3.25870        1.88270        1.62060
C         -0.28260        3.86280       -1.33050
C          0.87060        3.29120       -1.68010
N         -2.70380        4.87270        0.01000
C         -1.95830        6.01690        0.04330
C         -2.55970        7.27430        0.06940
C         -3.94590        7.37440        0.04110
C         -4.71610        6.21430       -0.02790
C         -6.11640        6.29150       -0.11260
C         -6.88890        5.13060       -0.20030
C         -6.27550        3.86610       -0.24690
C         -7.04690        2.57910       -0.30950
O         -6.43410        1.52080       -0.33400
C         -8.54840        2.48460       -0.26510
C         -4.86590        3.81040       -0.21300
C         -4.07230        4.95840       -0.04460
H          0.24400       -1.24220       -2.14800
H          0.85410       -0.96460        2.09560
H         -0.47970        4.84180       -1.74770
H          1.19880        2.34570       -1.27720
H          1.53920        3.80310       -2.36370
H         -0.88080        5.96820        0.10580
H         -1.95040        8.16900        0.13010
H         -4.40960        8.35310        0.05420
H         -6.61630        7.25380       -0.10910
H         -7.95810        5.25200       -0.24770
H         -9.06540        3.45690       -0.24000
H         -8.84480        1.92730        0.65210
H         -8.90610        1.92450       -1.15100
H         -4.39900        2.86230       -0.34140
