23

N         -0.32800       -1.08200        0.00300
C         -1.11610       -0.02590       -0.25770
O         -0.46830        1.10410       -0.09300
C          0.74220        0.80100        0.32910
C          0.85580       -0.57480        0.37540
Au        -0.93010       -3.09380        0.01630
Br        -2.31890       -2.66400        2.15980
C          0.22280       -3.45060       -1.76300
C          0.78210       -2.46130       -2.46560
O         -1.51780       -5.05770        0.02930
C         -1.02720       -6.08230       -0.65700
N         -1.66900       -7.24190       -0.34970
C         -2.57610       -6.89480        0.55890
C         -2.48490       -5.54240        0.78700
H         -2.13060       -0.10730       -0.62930
H          1.48730        1.52810        0.62380
H          1.69330       -1.14840        0.74930
H          0.43110       -4.41730       -2.16520
H          0.68650       -1.42260       -2.19280
H          1.37440       -2.69410       -3.34590
H         -0.23800       -6.10200       -1.35690
H         -3.25990       -7.58230        1.04450
H         -3.10370       -5.01680        1.49050
