96

P          1.03840       -0.06930       -0.06100
C         -0.11530        1.39970        0.24570
C          0.11230        2.04860        1.62860
C         -0.72310        3.31210        1.53020
C         -0.27680        3.86520        0.19470
C         -0.02520        2.62670       -0.69050
C          0.74210       -0.49310       -1.85230
C         -0.71140       -0.73640       -2.29030
C         -0.59590       -0.69840       -3.80690
C          0.21660        0.56570       -3.99160
C          1.31110        0.46830       -2.91750
C          0.24700       -1.11450        1.31060
C         -1.28180       -1.32660        1.12170
C         -1.61250       -2.47870        2.04180
C         -0.49740       -3.43750        1.69130
C          0.75450       -2.55080        1.58180
Au         3.49840       -0.06930       -0.06100
Br         3.49840       -2.59780       -0.62170
C          3.49840        2.02970        0.40440
C          3.25390        3.04150       -0.42840
P          5.95840       -0.06930       -0.06100
C          6.91700       -1.74670       -0.47160
C          6.53580       -2.20210       -1.91410
C          8.47380       -1.79380       -0.47390
C          6.47770       -2.92570        0.49290
C          6.70740        1.30170       -1.22030
C          6.47340        2.72620       -0.73930
C          8.25080        1.27310       -1.32240
C          6.12530        1.18900       -2.65440
C          6.45730        0.33460        1.69010
C          7.29320       -0.51660        2.43360
C          7.60630       -0.31110        3.75880
C          7.11640        0.80380        4.47920
N          7.35680        0.96360        5.89610
C          8.08620       -0.01060        6.71740
C          6.82300        2.07720        6.66990
C          6.35890        1.72680        3.70130
C          6.05480        1.49590        2.35450
H         -1.17660        1.10970        0.18760
H          1.18020        2.33390        1.75260
H         -0.18680        1.44570        2.50460
H         -0.57820        4.02480        2.37340
H         -1.79620        3.02650        1.48020
H          0.71330        4.34330        0.39780
H         -0.92670        4.64850       -0.24760
H          0.95400        2.79800       -1.12250
H         -0.74600        2.52820       -1.52660
H          1.23180       -1.47320       -2.04160
H         -1.37080        0.09890       -1.96320
H         -1.14200       -1.70220       -1.96350
H         -1.57780       -0.67980       -4.32940
H         -0.01350       -1.57810       -4.16290
H         -0.46520        1.40600       -3.72200
H          0.59300        0.75840       -5.01790
H          1.57030        1.48360       -2.59800
H          2.23570        0.00700       -3.32250
H          0.36710       -0.60260        2.28500
H         -1.48810       -1.68340        0.10000
H         -1.94030       -0.46020        1.32230
H         -2.62670       -2.90490        1.86090
H         -1.53280       -2.14430        3.09690
H         -0.72420       -3.82740        0.67120
H         -0.39740       -4.31290        2.36790
H          1.40170       -2.99830        0.82610
H          1.27740       -2.53670        2.56500
H          3.52940        2.27020        1.45630
H          3.14830        2.88720       -1.49320
H          3.20850        4.05260       -0.02700
H          7.05400       -1.61080       -2.68080
H          5.46880       -2.14510       -2.15990
H          6.86780       -3.24470       -2.11510
H          8.93830       -1.38670       -1.37430
H          8.80810       -2.85320       -0.54520
H          8.97300       -1.34620        0.39600
H          5.44050       -2.93380        0.79540
H          6.93860       -3.02530        1.47810
H          6.72620       -3.91420        0.04920
H          6.94140        2.94060        0.23820
H          5.46000        2.91350       -0.70480
H          6.83390        3.47830       -1.47650
H          8.72280        1.28790       -0.31510
H          8.63580        2.15980       -1.87910
H          8.61960        0.46690       -1.95180
H          5.01940        1.26310       -2.64650
H          6.39330        0.25940       -3.17080
H          6.52640        1.99260       -3.31170
H          7.75390       -1.36400        2.04710
H          8.22690       -1.07110        4.20630
H          8.49220       -0.87430        6.18190
H          7.40910       -0.42510        7.49070
H          8.94730        0.48070        7.20990
H          6.25510        2.82040        6.10020
H          7.65680        2.61790        7.16340
H          6.13920        1.68340        7.44950
H          5.96360        2.64130        4.10670
H          5.50840        2.24880        1.85070
