49

P          1.07890        0.05920        0.01630
C         -0.04360       -1.18300        0.77170
C          0.94170        1.24010        1.39400
C          0.17990        0.29310       -1.61750
C         -1.27960        0.73970       -1.35640
C          0.83790        1.39590       -2.44860
C          0.16750       -0.99950       -2.45500
Au         3.53890        0.05920        0.01630
Br         3.53890        2.40140       -1.08930
C          3.53890       -1.88500        0.93410
C          3.16790       -2.18540        2.17650
P          5.99890        0.05920        0.01630
N          7.20260       -1.07050        0.59730
C          7.11740       -2.36060       -0.13060
C          8.58120       -0.64370        0.78810
O          7.04270        0.83680       -1.09480
C          6.30700        1.34670       -2.17540
O          6.02460        1.10080        1.37290
C          5.73580        0.43060        2.56290
H         -1.08450       -0.84760        0.90290
H          0.34260       -1.43250        1.78170
H         -0.00190       -2.12940        0.19600
H         -0.13110        1.41820        1.62450
H          1.40550        2.20520        1.11310
H          1.44330        0.83140        2.29490
H         -1.29590        1.65440       -0.72270
H         -1.89050       -0.03950       -0.86700
H         -1.80340        0.97340       -2.30650
H          0.85110        2.35240       -1.88480
H          0.27250        1.57240       -3.39040
H          1.86090        1.09060       -2.74480
H         -0.38220       -1.81510       -1.94490
H          1.19960       -1.34370       -2.67260
H         -0.35950       -0.82770       -3.42030
H          3.88070       -2.69310        0.29850
H          2.81680       -1.43560        2.87070
H          3.22680       -3.22620        2.49260
H          6.05880       -2.62030       -0.34820
H          7.50310       -3.19560        0.50660
H          7.67050       -2.33170       -1.08940
H          8.61080        0.23290        1.46150
H          9.07950       -0.41470       -0.17890
H          9.17390       -1.45300        1.29700
H          6.93170        1.32510       -3.09110
H          6.08610        2.41140       -1.96880
H          5.39550        0.75530       -2.43160
H          6.65130        0.41180        3.20490
H          5.38380       -0.61220        2.45400
H          4.94200        0.98480        3.10910
