47

P         -0.09400       -2.58900       -0.00200
N         -1.31590       -3.17250       -1.15150
C         -2.24740       -4.04670       -0.40980
C         -1.99890       -2.25150       -2.05080
O          0.95100       -1.81480       -1.00770
C          1.49600       -0.67890       -0.53720
C          2.89370       -0.58840       -0.58390
C          3.55430        0.53220       -0.09120
C          2.82620        1.59460        0.43310
C          1.43320        1.54170        0.46450
C          0.72870        0.40950        0.00010
C         -0.77990        0.46140        0.09490
C         -1.41310        1.65620       -0.31920
C         -2.79930        1.80320       -0.26520
C         -3.59090        0.77790        0.23980
C         -2.99910       -0.40020        0.68900
C         -1.60970       -0.58730        0.60560
O         -1.12470       -1.77950        1.01410
Au         1.42500       -4.05750        1.25810
Br         2.21570       -4.97320       -0.91030
C          0.64910       -3.33050        3.04720
C          0.72140       -2.05290        3.41310
N          2.72170       -5.31110        2.33380
C          3.48990       -6.31900        1.87360
O          4.21280       -6.84820        2.83720
C          3.92260       -6.20710        3.94630
C          2.99230       -5.23930        3.65000
H         -1.68520       -4.78970        0.20560
H         -2.89380       -4.62780       -1.09750
H         -2.89110       -3.45980        0.28130
H         -1.26300       -1.64430       -2.60910
H         -2.74150       -1.63050       -1.52850
H         -2.56480       -2.85880       -2.79390
H          3.47040       -1.41160       -0.98590
H          4.63520        0.57510       -0.11310
H          3.34190        2.46380        0.82040
H          0.90390        2.38700        0.88730
H         -0.83280        2.47850       -0.71910
H         -3.26050        2.71730       -0.61740
H         -4.66670        0.89360        0.27720
H         -3.63030       -1.19310        1.07000
H          0.15460       -4.03780        3.70760
H          1.21540       -1.34270        2.77560
H          0.28730       -1.73770        4.36360
H          3.55370       -6.63370        0.84410
H          4.35430       -6.41140        4.91710
H          2.55380       -4.54500        4.35130
