78

P          1.00530        0.08730        0.04850
C          0.11340        1.26190        1.21620
C         -1.38370        1.62500        1.17150
C         -1.57970        2.30000        2.53200
C         -0.85570        1.34270        3.46560
C          0.42560        1.00250        2.71490
C          0.44320        0.78940       -1.55760
C          0.87600        2.18530       -1.96200
C          0.26440        2.24550       -3.36480
C          0.73840        0.92900       -3.97190
C          0.70910       -0.07380       -2.79840
C          0.18890       -1.54860        0.62130
C         -1.34440       -1.58940        0.52650
C         -1.71030       -3.06100        0.59120
C         -0.70100       -3.67740       -0.33540
C          0.55980       -2.80540       -0.19590
Au         3.46530        0.08730        0.04850
Br         3.38530       -2.03570       -1.25990
C          3.40510        1.63380        1.42540
C          3.52080        2.90980        1.08950
P          5.92530        0.08730        0.04850
N          7.02120       -1.33710        0.11150
C          8.37790       -1.23480        0.67510
C          6.30970       -2.39120        0.87430
N          6.29380        0.28880       -1.72070
C          7.73650        0.28430       -2.05350
C          5.61010       -0.58840       -2.66350
N          6.43760        1.24960        1.33080
C          6.27460        0.76940        2.71420
C          7.76850        1.86110        1.14480
H          0.57490        2.25450        1.01070
H         -2.06600        0.78520        1.17840
H         -1.67530        2.25000        0.30660
H         -2.64510        2.44040        2.81680
H         -1.05990        3.28150        2.54360
H         -1.46440        0.41270        3.53490
H         -0.68200        1.71020        4.50260
H          0.74890       -0.02340        2.98820
H          1.21260        1.71070        3.03770
H         -0.66760        0.84450       -1.47300
H          1.98710        2.24110       -2.01910
H          0.49430        2.98150       -1.29390
H          0.55230        3.13610       -3.96470
H         -0.84940        2.22020       -3.28280
H          1.80980        1.09550       -4.22360
H          0.22750        0.59490       -4.89040
H          1.69200       -0.57890       -2.79360
H         -0.09380       -0.83970       -2.88780
H          0.43220       -1.78820        1.68170
H         -1.68760       -1.18640       -0.45410
H         -1.88100       -1.15140        1.38770
H         -2.76660       -3.28260        0.31160
H         -1.52960       -3.42740        1.62560
H         -1.10230       -3.52510       -1.36410
H         -0.55980       -4.76810       -0.18020
H          0.81970       -2.54400       -1.23650
H          1.38270       -3.34230        0.32350
H          3.27570        1.38350        2.47160
H          3.65100        3.20140        0.05450
H          3.47860        3.66340        1.87310
H          9.01430       -0.53080        0.11860
H          8.88540       -2.21910        0.57040
H          8.37590       -1.01760        1.75930
H          5.32530       -2.60840        0.43470
H          6.14050       -2.09390        1.93080
H          6.86510       -3.35050        0.85910
H          8.32570        0.94270       -1.40110
H          7.89890        0.67140       -3.08010
H          8.16070       -0.74510       -2.03120
H          4.55410       -0.27740       -2.73370
H          5.79100       -1.65890       -2.41810
H          5.98560       -0.42970       -3.69960
H          5.21910        0.62870        2.97130
H          6.66870        1.52480        3.43420
H          6.79720       -0.17630        2.90880
H          7.87760        2.29760        0.14090
H          8.60090        1.17630        1.38980
H          7.89700        2.70860        1.84690
