67

P          0.99820       -0.05850        0.08100
C         -0.02910       -0.00880       -1.58780
C         -1.55930        0.16110       -1.48390
C          0.42420        1.20230       -2.45980
C          0.18620       -1.28410       -2.46040
C          0.53220       -1.76170        0.92940
C          1.14700       -2.97100        0.18170
C          1.03010       -1.91880        2.38020
C         -0.99760       -2.00340        1.02240
C          0.50220        1.51130        0.85950
C         -0.31730        1.49620        1.98880
C         -0.80690        2.67810        2.54660
C         -0.49980        3.94650        1.99830
N         -1.03380        5.17410        2.57710
C         -1.89140        5.20890        3.75300
C         -0.74840        6.51160        2.02780
C          0.35320        3.94320        0.85910
C          0.85440        2.75140        0.31340
Au         3.45820       -0.05850        0.08100
Br         3.45820       -0.11200        2.67050
C          3.45820       -0.01420       -2.06850
C          4.09660        0.96090       -2.72570
N          5.55820       -0.05850        0.08100
C          6.30070        0.16510        1.21720
N          7.65930        0.23620        1.17210
C          8.34160        0.03760        0.01750
O          9.68840        0.14230       -0.03620
C         10.46720        0.62850        0.99220
C          7.64670       -0.25600       -1.13460
C          6.26040       -0.29060       -1.07980
H         -1.82360        1.07920       -0.91090
H         -2.08580       -0.69180       -1.05640
H         -1.98520        0.24640       -2.50480
H          0.04830        2.16070       -2.06250
H          0.00230        1.14530       -3.48890
H          1.50310        1.29880       -2.59360
H         -0.44400       -2.12570       -2.11500
H          1.19760       -1.67010       -2.51610
H         -0.15200       -1.12910       -3.51040
H          2.24060       -2.83440        0.04620
H          0.70600       -3.18590       -0.79380
H          0.98170       -3.91540        0.74890
H          2.10150       -2.15540        2.39580
H          0.62000       -2.83970        2.85250
H          0.74220       -1.07580        3.03560
H         -1.43570       -2.24050        0.04820
H         -1.53860       -1.17830        1.52100
H         -1.22340       -2.92660        1.60440
H         -0.61930        0.56960        2.44330
H         -1.43910        2.53710        3.40280
H         -2.16440        4.24220        4.18450
H         -2.86640        5.70560        3.50060
H         -1.40620        5.79130        4.55770
H         -0.10870        6.53440        1.14870
H         -0.24680        7.11750        2.81780
H         -1.69990        7.01190        1.75480
H          0.65530        4.84010        0.34550
H          1.49050        2.81030       -0.55660
H          2.90200       -0.68620       -2.67130
H          4.61980        1.73660       -2.17770
H          4.06700        1.00000       -3.81040
H          5.85870        0.37820        2.16190
H         11.53050        0.61500        0.67860
H         10.34380        0.00310        1.90100
H         10.18040        1.67920        1.21170
H          8.16530       -0.44530       -2.06420
H          5.79590       -0.56010       -2.00180
