70

P          0.96360       -0.01000       -0.09260
C         -0.15700       -0.21630        1.49080
C         -0.08640        0.73190        2.73470
C         -1.15430        1.85240        2.76340
C         -2.56030        1.27070        2.61860
C         -2.66050        0.45050        1.32770
C         -1.64310       -0.69230        1.36640
C          0.55280        1.76000       -0.66820
C          1.05650        2.82150        0.31580
C          2.50330        3.23600        0.05390
C          2.54460        4.05080       -1.23610
C          2.09170        3.19990       -2.41300
C          0.80140        2.34050       -2.12970
C          0.42120       -1.69900       -0.87820
C          0.89020       -2.18240       -2.28810
C          2.13660       -3.10420       -2.29680
C          1.99070       -4.28030       -1.31990
C          1.70480       -3.74520        0.07910
C          0.38110       -2.97390        0.03740
Au         3.42360       -0.01000       -0.09260
Br         3.42360        0.32860       -2.66040
C          3.42360       -0.29110        2.03890
C          3.85070       -1.46930        2.48990
N          5.52360       -0.01000       -0.09260
C          6.24400       -0.14230       -1.25670
C          7.63970       -0.21790       -1.26360
C          8.34000       -0.11010       -0.07320
Cl        10.09100       -0.19950       -0.05740
C          7.62880        0.05200        1.11150
C          6.23730        0.08470        1.09020
H          0.39860       -1.06600        1.91460
H          0.93370        1.10420        2.93430
H         -0.32510        0.11000        3.63130
H         -1.01900        2.59190        1.95800
H         -1.09200        2.39160        3.73610
H         -3.31050        2.09080        2.61160
H         -2.78700        0.61730        3.49270
H         -2.49860        1.08670        0.43600
H         -3.68420        0.01970        1.27220
H         -1.84110       -1.40610        0.55830
H         -1.87870       -1.27310        2.28990
H         -0.55180        1.70760       -0.60210
H          1.01100        2.46810        1.33320
H          0.41550        3.73130        0.24020
H          3.16580        2.34160        0.01990
H          2.84480        3.88780        0.88560
H          3.57960        4.42090       -1.41880
H          1.87990        4.93180       -1.12980
H          2.98120        2.66370       -2.66330
H          1.95450        3.82740       -3.32230
H          0.59870        1.60150       -2.93570
H          0.00930        3.11480       -2.24230
H         -0.63070       -1.44300       -1.08270
H          0.96850       -1.35390       -3.01790
H          0.07290       -2.84660       -2.66910
H          3.04310       -2.53080       -2.03420
H          2.26900       -3.53290       -3.31900
H          2.91190       -4.90110       -1.31370
H          1.15100       -4.94890       -1.63040
H          2.52790       -3.09950        0.43540
H          1.59920       -4.61040        0.77190
H          0.02180       -2.82620        1.06180
H         -0.37720       -3.67360       -0.37510
H          3.07540        0.47300        2.72110
H          4.19920       -2.20540        1.77210
H          3.88140       -1.69640        3.54770
H          5.79060       -0.27540       -2.21140
H          8.16960       -0.37510       -2.19580
H          8.15600        0.15930        2.05220
H          5.76110        0.22910        2.03130
