73

P          0.93110       -0.02560        0.06780
C         -0.07740        1.44940        0.81040
C          0.22110        2.81910        0.16850
C         -0.58270        2.98660       -1.09550
C         -2.09090        2.90580       -0.85850
C         -2.46120        1.57570       -0.16210
C         -1.62160        1.39550        1.08560
C          0.72730       -0.33040       -1.85000
C         -0.63450       -0.70470       -2.51590
C         -1.33410        0.41870       -3.31730
C         -0.39720        1.11120       -4.32300
C          0.97370        1.53910       -3.73280
C          1.62370        0.38300       -2.93140
C          0.07830       -1.30570        1.16830
C          0.47160       -2.77130        0.90300
C          1.81330       -3.13190        1.55330
C          1.80150       -2.84870        3.05590
C          1.45600       -1.37640        3.31170
C          0.09260       -1.06700        2.70590
Au         3.39110       -0.02560        0.06780
Br         3.42520       -2.14360       -1.32210
C          3.29010        1.73500        1.16230
C          3.76840        2.85610        0.59260
N          5.49110       -0.02560        0.06780
C          6.16900        0.86040        0.87650
C          7.56990        0.90830        0.93020
C          8.28450        1.84300        1.86120
C          8.31240        0.08370        0.09020
C          7.64820       -0.82380       -0.72440
C          6.25500       -0.87900       -0.71160
H          0.38200        1.54150        1.81130
H          1.29260        2.92270       -0.06040
H         -0.06200        3.64700        0.85660
H         -0.30030        2.12960       -1.66530
H         -0.31320        3.93120       -1.61620
H         -2.62950        2.99580       -1.82860
H         -2.39670        3.76960       -0.23440
H         -2.28660        0.67560       -0.76990
H         -3.54500        1.59130        0.07490
H         -1.95280        0.49800        1.63400
H         -1.87770        2.25510        1.74760
H          1.14260       -1.33450       -1.81250
H         -1.30700       -1.22420       -1.80300
H         -0.40240       -1.45610       -3.31110
H         -1.77000        1.16790       -2.69030
H         -2.21190       -0.00070       -3.85590
H         -0.91870        1.99410       -4.76300
H         -0.20820        0.38950       -5.14120
H          0.94250        2.47170       -3.15390
H          1.62250        1.83450       -4.58620
H          2.62580        0.65780       -2.54220
H          1.80070       -0.37740       -3.72390
H         -0.97800       -1.24360        0.83930
H          0.46020       -2.99270       -0.18410
H         -0.30540       -3.42480        1.36970
H          2.61620       -2.52220        1.12140
H          2.03020       -4.20830        1.37690
H          2.79610       -3.07870        3.48780
H          1.04560       -3.49820        3.55320
H          2.22140       -0.70500        2.86730
H          1.41900       -1.19660        4.40830
H         -0.23390       -0.06050        3.00610
H         -0.65350       -1.75190        3.17220
H          2.83090        1.77480        2.13890
H          4.21490        2.80910       -0.39550
H          3.72990        3.80880        1.10850
H          5.65030        1.50840        1.55320
H          7.56960        2.42090        2.49200
H          8.91580        2.55590        1.29480
H          8.92750        1.24950        2.54500
H          9.38920        0.11470        0.08680
H          8.21120       -1.48040       -1.37490
H          5.83690       -1.58790       -1.38640
