84

P          1.07360       -0.02450        0.06310
C          0.01110        1.43190        0.33600
C         -1.02300        1.85630       -0.51590
C         -1.71000        3.05100       -0.23670
C         -1.35690        3.83420        0.87110
C         -0.33900        3.41350        1.72120
C          0.31810        2.21250        1.46770
C          0.79520       -0.43890       -1.66300
C          1.28020        0.42770       -2.65420
C          1.04410        0.15680       -4.00450
C          0.32110       -0.98040       -4.37280
C         -0.16280       -1.85000       -3.38890
C          0.07380       -1.58180       -2.03400
C          0.44530       -0.95050        1.47600
C         -0.94680       -1.12170        1.59350
C         -1.49760       -1.70900        2.73140
C         -0.66410       -2.14080        3.76330
C          0.72350       -1.99030        3.64940
C          1.27750       -1.39320        2.50840
Au         3.53360       -0.02450        0.06310
Br         3.53360       -2.59240       -0.27450
C          3.53360        2.10710        0.34340
C          4.34640        2.94640       -0.28650
P          5.99360       -0.02450        0.06310
C          6.99250        1.47800        0.12890
C          6.70550        2.35870        1.18770
C          7.07730        3.70810        1.11010
C          6.57060        4.69140        2.13030
C          7.81690        4.15450        0.00850
C          8.17800        3.25940       -1.00790
C          7.75670        1.92210       -0.95990
C          6.50920       -0.83150        1.60150
C          7.88390       -0.97870        1.88100
C          8.31330       -1.57020        3.08230
C          9.77560       -1.70290        3.40230
C          7.35830       -2.03230        3.99810
C          5.99570       -1.89220        3.72250
C          5.57470       -1.28630        2.53190
C          6.34890       -1.02000       -1.38640
C          5.93260       -0.54660       -2.64570
C          6.21410       -1.27430       -3.81240
C          5.77040       -0.77780       -5.15990
C          6.92860       -2.47860       -3.72110
C          7.34750       -2.94950       -2.47070
C          7.05800       -2.22730       -1.31030
H         -1.29810        1.27980       -1.38730
H         -2.50850        3.38470       -0.88330
H         -1.86680        4.76850        1.07000
H         -0.05240        4.02140        2.57310
H          1.10970        1.91440        2.14640
H          1.83160        1.31840       -2.37960
H          1.41550        0.83260       -4.76430
H          0.13300       -1.18480       -5.41940
H         -0.72690       -2.72680       -3.67930
H         -0.31550       -2.25500       -1.28140
H         -1.61320       -0.76630        0.81460
H         -2.57250       -1.81160        2.82030
H         -1.09500       -2.58280        4.65330
H          1.36520       -2.31770        4.45620
H          2.34070       -1.24790        2.44750
H          2.73640        2.58560        0.87430
H          5.08820        2.59200       -0.98030
H          4.23080        4.01830       -0.15600
H          6.06320        2.03330        1.99800
H          5.97430        4.19100        2.92380
H          5.88960        5.41070        1.62080
H          7.40270        5.25300        2.59710
H          8.07730        5.20280       -0.08240
H          8.71630        3.62780       -1.87180
H          7.94640        1.28270       -1.81040
H          8.61750       -0.61760        1.17020
H         10.41300       -1.27420        2.59980
H         10.04070       -2.77300        3.53090
H         10.00050       -1.16160        4.34670
H          7.67120       -2.49360        4.92810
H          5.26510       -2.24830        4.43750
H          4.52400       -1.17540        2.33540
H          5.38740        0.38620       -2.71060
H          5.22360        0.18530       -5.08110
H          5.09690       -1.52560       -5.62840
H          6.65390       -0.62640       -5.81560
H          7.16170       -3.04750       -4.61320
H          7.90540       -3.87570       -2.40710
H          7.39830       -2.60610       -0.35750
