60

P          1.05870       -0.02940        0.07540
F         -0.42200       -0.42220        0.75040
F          1.07560        1.39490        0.95570
F          0.37240       -0.03330       -1.45360
Cu         3.51870       -0.02940        0.07540
Br         3.11990       -0.76130        2.42790
C          2.95490       -1.21490       -1.59090
C          3.43850       -2.40440       -1.90600
P          5.97870       -0.02940        0.07540
C          7.09190        1.33630        0.79850
C          6.80020        2.68230        0.09600
C          5.35040        3.13930        0.35860
C          5.07590        3.29920        1.86560
C          5.47090        2.04630        2.64830
C          6.90440        1.62980        2.33170
C          6.43560       -1.25550        1.48360
C          5.90790       -2.69180        1.23260
C          6.64400       -3.38970        0.06970
C          8.15650       -3.47910        0.33370
C          8.70860       -2.10450        0.64810
C          7.98050       -1.42890        1.79170
C          6.40580       -0.16310       -1.80660
C          7.64410       -0.45070       -2.52320
C          9.07520       -0.31050       -2.07040
C          7.60830       -0.88090       -3.88550
C          6.43440       -0.90920       -4.60240
C          5.29380       -0.43710       -4.02110
C          5.30230       -0.02660       -2.66940
H          2.27640       -0.77020       -2.31450
H          4.16490       -2.88850       -1.28390
H          3.10560       -2.86740       -2.83240
H          8.15120        1.08670        0.61250
H          6.99170        2.59910       -0.99380
H          7.49800        3.45930        0.49380
H          4.64870        2.39460       -0.06950
H          5.15660        4.10980       -0.14230
H          3.99670        3.50720        2.03250
H          5.66550        4.14970        2.26040
H          4.81340        1.22300        2.34490
H          5.33930        2.21370        3.73280
H          7.16460        0.79280        2.99760
H          7.59530        2.44800        2.64370
H          5.95290       -0.89100        2.40550
H          4.82060       -2.67380        1.04880
H          6.09090       -3.29070        2.15230
H          6.47140       -2.82310       -0.86660
H          6.25510       -4.41810       -0.06370
H          8.66880       -3.88520       -0.57060
H          8.37550       -4.14470        1.19070
H          8.49510       -1.50070       -0.19420
H          9.80850       -2.14150        0.81990
H          8.51270       -0.49740        2.01460
H          8.12120       -2.06390        2.69490
H          9.17820        0.22950       -1.12230
H          9.59720        0.33300       -2.80890
H          9.61330       -1.28890       -2.07990
H          8.51120       -1.17670       -4.40580
H          6.42870       -1.27090       -5.63100
H          4.37080       -0.37420       -4.59750
H          4.41000        0.37100       -2.27050
