45

P          0.94550        0.05420       -0.06400
F         -0.71410       -0.12790        0.05780
F          0.91770        1.25320        1.10400
F          0.81220        0.39500       -1.69750
Cu         3.40550        0.05420       -0.06400
Br         3.28420        2.03770       -1.55380
C          3.32010       -1.45280        1.34930
C          3.37560       -1.16500        2.64870
P          5.86550        0.05420       -0.06400
C          6.64700        1.37690       -1.03610
C          7.46250        2.36410       -0.47360
C          7.81790        3.49610       -1.23590
C          7.35850        3.64090       -2.55040
F          7.65310        4.75910       -3.26060
C          6.56550        2.64690       -3.12310
C          6.22330        1.51970       -2.37250
C          6.28690        0.15430        1.69060
C          7.06670       -0.83460        2.31650
C          7.39500       -0.72390        3.67060
C          6.95320        0.37260        4.40970
F          7.27530        0.47960        5.72400
C          6.18480        1.36610        3.79580
C          5.85470        1.25830        2.44000
C          6.32330       -1.57480       -0.74840
C          7.08590       -1.67400       -1.92840
C          7.45660       -2.92130       -2.43910
C          7.07860       -4.09060       -1.77810
F          7.44480       -5.29920       -2.26850
C          6.33530       -4.01000       -0.60110
C          5.96040       -2.76440       -0.09190
H          3.21000       -2.48250        1.02900
H          3.46790       -0.13600        2.97630
H          3.32680       -1.95700        3.38920
H          7.77510        2.30620        0.55870
H          8.41500        4.28030       -0.79190
H          6.18310        2.76460       -4.13150
H          5.55950        0.78960       -2.82080
H          7.43900       -1.68670        1.77100
H          7.99810       -1.48890        4.14340
H          5.84700        2.21860        4.36990
H          5.26190        2.03660        1.97490
H          7.40930       -0.79580       -2.46500
H          8.04020       -2.98080       -3.35000
H          6.05430       -4.91410       -0.07470
H          5.41700       -2.74420        0.83310
