63

P          1.08290       -0.03830       -0.04070
F         -0.58460        0.03550       -0.16530
F          1.06310       -1.63820       -0.53260
F          0.99960        0.37480        1.57930
Cu         3.54290       -0.03830       -0.04070
Br         3.56840       -1.22480        2.14550
C          3.05740        1.29070       -1.70220
C          2.13930        2.27190       -1.64900
P          6.00290       -0.03830       -0.04070
C          6.93270       -1.10010        1.24640
C          6.59190       -2.61150        1.18130
C          7.37090       -3.34510        0.09290
C          8.89010       -3.12270        0.26120
C          9.31340       -1.63610        0.45310
C          8.46100       -0.97130        1.51490
C          6.27060       -0.68380       -1.91530
C          5.62540       -0.03010       -3.17660
C          6.24550        1.34310       -3.54220
C          7.75260        1.18340       -3.79520
C          8.46640        0.37650       -2.68620
C          7.71700       -0.93140       -2.45320
C          6.70710        1.65940        0.60190
C          6.48310        2.96240       -0.20860
C          5.01560        3.30840       -0.21610
C          4.47390        3.56410        1.19170
C          4.80960        2.39780        2.13450
C          6.29160        2.02910        2.05750
H          3.58260        1.39000       -2.61570
H          1.51850        2.45740       -0.78450
H          2.00890        2.93660       -2.50100
H          6.46870       -0.76770        2.19160
H          5.50790       -2.79030        1.05250
H          6.88190       -3.07410        2.15310
H          7.00890       -3.03160       -0.88460
H          7.14700       -4.43300        0.14320
H          9.42940       -3.57950       -0.59700
H          9.19000       -3.66460        1.18000
H          9.26480       -0.97460       -0.40680
H         10.38610       -1.61020        0.72780
H          8.79030        0.06700        1.68890
H          8.68020       -1.51080        2.46300
H          5.77200       -1.66820       -1.89880
H          4.55100       -0.15910       -3.15380
H          5.80520       -0.66390       -4.07770
H          6.00050        2.03100       -2.74200
H          5.77750        1.76490       -4.45380
H          8.25020        2.16900       -3.93820
H          7.87680        0.61610       -4.74330
H          8.53690        0.95180       -1.74360
H          9.50300        0.15000       -3.03490
H          8.25010       -1.68550       -1.89550
H          7.68130       -1.47590       -3.42280
H          7.80450        1.55570        0.57520
H          6.93370        2.87000       -1.20230
H          7.03000        3.82170        0.23680
H          4.58270        2.41400       -0.56150
H          4.77460        4.14580       -0.90350
H          3.36660        3.69440        1.14950
H          4.92230        4.50920        1.56050
H          4.21730        1.51150        1.84410
H          4.53240        2.68360        3.16930
H          6.54720        1.24820        2.78230
H          6.88420        2.92650        2.38000
