39

P          1.06580       -0.04070        0.06330
F         -0.60120       -0.19160        0.07080
F          1.05250        0.28460        1.70530
F          0.95600        1.17890       -1.07690
Cu         3.52580       -0.04070        0.06330
Br         3.50210        2.42180       -0.31960
C          3.54150       -2.05150        0.62030
C          3.07240       -3.02710       -0.14870
P          5.98580       -0.04070        0.06330
N          6.99630        1.21260       -0.70440
C          8.45200        1.24310       -0.60630
C          6.50330        1.50560       -2.05740
N          6.37370        0.46150        1.72300
C          5.72540        1.71500        2.11300
C          6.04840       -0.60580        2.66430
N          6.32310       -1.67830       -0.54260
C          5.79040       -1.83720       -1.90540
C          7.74260       -2.03140       -0.50030
H          3.94870       -2.31620        1.58980
H          2.65680       -2.81140       -1.11880
H          3.11590       -4.05030        0.21360
H          8.78160        1.11560        0.43880
H          8.79320        2.24960       -0.95020
H          8.92490        0.52500       -1.29920
H          5.41870        1.32700       -2.15440
H          7.01360        0.88630       -2.82780
H          6.65450        2.58310       -2.30530
H          5.99540        2.52970        1.41040
H          6.08930        2.01650        3.12060
H          4.62480        1.59270        2.16360
H          6.49060       -1.57360        2.33890
H          4.95070       -0.72050        2.78370
H          6.47990       -0.37400        3.66420
H          4.72810       -1.51340       -1.95530
H          5.83140       -2.90470       -2.20310
H          6.37410       -1.25420       -2.64550
H          8.16670       -1.85750        0.50810
H          8.32240       -1.47920       -1.26420
H          7.86500       -3.10620       -0.74880
