25

P          1.05220       -0.07030       -0.04840
F         -0.61120       -0.19280        0.09420
F          1.04110        1.27530        0.94760
F          0.89370        0.01360       -1.71230
Cu         3.51220       -0.07030       -0.04840
Br         3.21110        1.60320       -1.91540
C          3.50230       -1.44740        1.49210
C          4.00510       -1.01490        2.65560
N          5.61220       -0.07030       -0.04840
C          6.35770        1.00270       -0.50030
C          5.77650        2.37490       -0.64710
C          7.75430        0.93590       -0.58230
C          8.41600       -0.21320       -0.18400
C          7.67950       -1.26720        0.33720
C          6.28540       -1.17150        0.42270
H          3.11560       -2.45050        1.38820
H          4.38640        0.00140        2.72180
H          4.05310       -1.65120        3.53190
H          4.79410        2.43250       -0.14190
H          5.80220        2.74410       -1.69080
H          6.36230        3.07710       -0.01550
H          8.33400        1.79530       -0.90580
H          9.49500       -0.26670       -0.24100
H          8.18830       -2.16250        0.66530
H          5.76840       -2.03760        0.78730
