62

P          0.93580       -0.06840        0.03460
C          0.22950        0.36850       -1.59340
C         -1.13680        0.37760       -2.00640
C         -2.28690        0.08080       -1.10610
C         -1.43380        0.63980       -3.36390
C         -0.42150        0.86910       -4.29960
C          0.90440        0.83860       -3.89960
C          1.22050        0.58940       -2.56980
C          0.36630       -1.81780        0.06640
C         -0.49730       -2.38350        1.06000
C         -1.09810       -1.64180        2.21680
C         -0.83710       -3.74120        0.97130
C         -0.37260       -4.53470       -0.07410
C          0.44340       -3.98620       -1.05180
C          0.80680       -2.64030       -0.98360
C          0.46460        1.34010        1.10690
C          0.76970        1.29970        2.50580
C          1.61500        0.22950        3.15910
C          0.22500        2.26390        3.36880
C         -0.59960        3.27130        2.88240
C         -0.87760        3.34200        1.51910
C         -0.35570        2.38990        0.63700
Cu         3.39580       -0.06840        0.03460
Br         3.39580        2.43090       -0.64480
C          3.39580       -2.14310        0.59850
C          4.31110       -3.12070        0.51210
N          5.49580       -0.06840        0.03460
C          5.71450        1.09300        0.92480
N          6.23810       -1.13560        0.45630
C          7.35070       -1.22310       -0.17400
C          7.40270       -0.26850       -1.17000
C          6.21240        0.43670       -1.08280
H         -1.97020       -0.14070       -0.07360
H         -2.83740       -0.79780       -1.50770
H         -2.97530        0.95380       -1.09240
H         -2.45960        0.64460       -3.70930
H         -0.66370        1.04890       -5.33980
H          1.69790        0.99350       -4.62450
H          2.26820        0.53780       -2.31020
H         -0.88430       -0.57210        2.20720
H         -0.73830       -2.08090        3.17100
H         -2.20360       -1.73740        2.17830
H         -1.48640       -4.19360        1.71310
H         -0.65880       -5.58250       -0.12610
H          0.79310       -4.60370       -1.86800
H          1.44690       -2.24310       -1.75870
H          2.08010       -0.46710        2.44320
H          0.99150       -0.36220        3.86510
H          2.43040        0.70520        3.74330
H          0.42100        2.21830        4.43610
H         -1.02870        3.99240        3.56680
H         -1.52910        4.12350        1.15150
H         -0.64180        2.46690       -0.39880
H          2.46760       -2.52180        0.97780
H          5.27260       -3.06140        0.04970
H          4.05060       -4.12070        0.84190
H          5.10010        0.97080        1.84050
H          5.54850        2.10450        0.51640
H          6.77590        1.15320        1.26710
H          8.09810       -1.97340        0.04790
H          8.19750       -0.12440       -1.89260
H          5.90690        1.23950       -1.74220
