60

P          0.93230        0.05570        0.04820
C          0.10980       -1.60620       -0.18430
C         -1.41820       -1.69430       -0.30530
C          0.72630       -2.25470       -1.44290
C          0.56250        0.65740        1.75810
C          1.16630        2.05510        1.91560
C         -0.94470        0.76440        2.03320
C          0.27980        0.91940       -1.42640
Cu         3.39230        0.05570        0.04820
Br         3.39230       -1.55770        2.07430
C          3.39230        1.39500       -1.63380
C          2.93970        2.64590       -1.58160
P          5.85230        0.05570        0.04820
N          7.01720       -0.25400        1.36200
C          8.43220        0.03130        1.19420
C          6.49080        0.42120        2.57090
N          6.19540       -1.49600       -0.73970
C          5.64480       -2.66460       -0.05640
C          5.74250       -1.44200       -2.13510
N          6.19610        1.58880       -0.78620
C          5.77050        2.74740        0.01860
C          7.55940        1.75530       -1.28750
H          0.43120       -2.23450        0.67190
H         -1.80680       -1.10460       -1.15700
H         -1.95680       -1.41740        0.60680
H         -1.70030       -2.75580       -0.48020
H          0.41220       -1.72860       -2.36430
H          0.40300       -3.31110       -1.53900
H          1.83640       -2.24170       -1.38750
H          1.01200       -0.01150        2.51750
H          0.71290        2.76130        1.18380
H          2.26210        2.02560        1.76390
H          0.96500        2.44550        2.93830
H         -1.46130        1.33910        1.23290
H         -1.13450        1.27080        3.00350
H         -1.39060       -0.23030        2.15560
H         -0.82780        0.88860       -1.40030
H          0.64540        0.48300       -2.37300
H          0.52530        1.99290       -1.38320
H          3.82820        1.03600       -2.55990
H          2.51320        3.04200       -0.66860
H          2.98340        3.27230       -2.46760
H          8.82190       -0.42290        0.26210
H          8.98260       -0.41090        2.05380
H          8.63790        1.11670        1.25870
H          5.37970        0.39440        2.62830
H          6.77610        1.49260        2.59420
H          6.86400       -0.07110        3.49030
H          5.97220       -2.68870        1.00300
H          6.04200       -3.58540       -0.53770
H          4.54020       -2.69070       -0.14050
H          6.22190       -0.58830       -2.66280
H          4.63980       -1.32860       -2.19440
H          6.05020       -2.36200       -2.67420
H          4.75610        2.58020        0.44020
H          5.72230        3.64330       -0.63280
H          6.46560        2.93830        0.85070
H          7.93890        0.82500       -1.74540
H          8.25740        2.13010       -0.51480
H          7.55690        2.54670       -2.07330
