57

P          1.04960        0.04890       -0.07170
C          0.16760        1.33480        0.84190
C         -1.19260        1.66820        0.75500
C         -1.72460        2.65050        1.62220
C         -3.17170        3.03290        1.58570
C         -0.89440        3.28600        2.56330
C          0.45270        2.95840        2.63880
C          0.97800        1.99460        1.78630
C          0.55590        0.59000       -1.75990
C         -0.13850       -0.37700       -2.52010
C         -0.54530       -0.16800       -3.83310
C         -1.29400       -1.23220       -4.58690
C         -0.23790        1.05200       -4.44360
C          0.41550        2.04920       -3.71580
C          0.79470        1.83240       -2.37460
C          0.22370       -1.50970        0.38340
C         -0.86200       -1.57670        1.27110
C         -1.53790       -2.79200        1.48000
C         -2.74820       -2.85060        2.35870
C         -1.09830       -3.95500        0.83160
C         -0.01120       -3.90440       -0.03730
C          0.63060       -2.69070       -0.27660
Cu         3.50960        0.04890       -0.07170
Br         3.67530        2.21590       -1.25650
C          3.75760       -1.84440        0.87880
C          2.89380       -2.57110        1.57550
C          5.65960        0.04890       -0.07170
N          6.39170        1.07120       -0.56310
C          7.66900        0.69420       -0.38200
C          7.67850       -0.54850        0.19930
O          6.43430       -0.91090        0.38690
H         -1.82900        1.15900        0.04190
H         -3.72110        2.46930        0.80570
H         -3.26060        4.12020        1.37780
H         -3.63310        2.81960        2.57440
H         -1.29170        4.03240        3.24070
H          1.09250        3.44110        3.37030
H          2.02770        1.74390        1.88360
H         -0.39040       -1.33730       -2.09470
H         -1.47550       -2.12990       -3.95950
H         -0.72120       -1.54950       -5.48330
H         -2.28320       -0.83810       -4.90690
H         -0.52460        1.23040       -5.47220
H          0.63000        2.99260       -4.18750
H          1.25010        2.64420       -1.84880
H         -1.22060       -0.69520        1.77450
H         -2.99050       -1.85490        2.78630
H         -2.58660       -3.57050        3.18630
H         -3.61780       -3.18200        1.74970
H         -1.60900       -4.89780        0.98890
H          0.32080       -4.80330       -0.54310
H          1.45580       -2.66670       -0.97980
H          4.73730       -2.29260        0.87510
H          1.91970       -2.23070        1.82560
H          3.20980       -3.51420        2.01040
H          8.53230        1.28460       -0.65800
H          8.54570       -1.13900        0.46320
