48

P          0.91040        0.03790        0.02330
C         -0.49630        0.98720       -0.67090
C          0.69880       -1.35620       -1.13140
C          0.14640       -0.03070        1.64290
C         -0.86910       -0.95620        1.91830
C         -1.61810       -0.84350        3.09540
C         -1.35370        0.19170        3.99860
C         -0.33530        1.11200        3.73180
C          0.40910        1.00490        2.55390
Cu         3.37040        0.03790        0.02330
Br         3.37040       -2.01990        1.59620
C          3.37040        1.74600       -1.28230
C          2.41920        2.48690       -1.84550
C          5.52040        0.03790        0.02330
N          6.32020       -0.19900        1.11100
C          5.98990       -0.33760        2.53100
C          5.11370        0.82880        3.00710
C          7.58510       -0.03050        0.67450
C          7.57080        0.23730       -0.67830
N          6.29110        0.29260       -1.07920
C          5.89570        0.38360       -2.48670
C          6.51100       -0.76210       -3.30910
H         -1.48300        0.53260       -0.47820
H         -0.37190        1.08540       -1.77160
H         -0.46470        2.01400       -0.23910
H         -0.38210       -1.58220       -1.26530
H          1.20880       -2.26140       -0.75450
H          1.11770       -1.07070       -2.12010
H         -1.12230       -1.72490        1.20060
H         -2.42440       -1.53740        3.29250
H         -1.94940        0.29190        4.89720
H         -0.14660        1.92470        4.42070
H          1.15500        1.75650        2.32930
H          4.36500        2.10690       -1.49690
H          1.37580        2.32960       -1.73460
H          2.73050        3.33140       -2.46080
H          6.92450       -0.31210        3.13940
H          5.53450       -1.30770        2.75540
H          5.62270        1.80100        2.82120
H          4.91980        0.74070        4.09820
H          4.13820        0.83530        2.47710
H          8.47240       -0.10410        1.30290
H          8.44020        0.39040       -1.29990
H          6.20720        1.35440       -2.91350
H          4.79880        0.24110       -2.60230
H          7.61750       -0.74280       -3.27210
H          6.19000       -0.68880       -4.37040
H          6.16160       -1.74900       -2.91600
