49

P          0.94190        0.07560        0.03010
C          0.08270        1.61720        0.48890
C         -1.27900        1.90620        0.29290
C         -1.78350        3.17820        0.63800
C         -0.93880        4.16340        1.17000
Cl        -1.55920        5.74030        1.62990
C          0.41610        3.89710        1.32120
C          0.91550        2.64830        0.96860
C          0.59730       -0.04080       -1.75670
C          1.04580        0.98750       -2.59400
C          0.88250        0.90940       -3.97720
C          0.24250       -0.18910       -4.55140
Cl         0.06670       -0.26940       -6.29730
C         -0.24370       -1.21590       -3.73340
C         -0.06850       -1.14850       -2.33700
C          0.26800       -1.13270        1.22270
C         -1.10810       -1.44040        1.14980
C         -1.67420       -2.43690        1.95140
C         -0.87620       -3.15170        2.84230
Cl        -1.59330       -4.40530        3.84390
C          0.49430       -2.87900        2.91510
C          1.06870       -1.88310        2.10280
Cu         3.40190        0.07560        0.03010
Br         3.38830        0.79020        2.43220
C          3.42530       -0.43010       -2.02130
C          3.34140       -1.76340       -2.37070
O          5.45190        0.07560        0.03010
C          6.21710       -0.07900       -1.03540
N          7.52400       -0.09630       -0.71600
C          7.54230        0.04520        0.61920
C          6.24750        0.17410        1.07400
H         -1.94450        1.18280       -0.14790
H         -2.82910        3.40840        0.48820
H          1.09170        4.65560        1.70430
H          1.97490        2.50660        1.06350
H          1.56470        1.83440       -2.17110
H          1.27070        1.70200       -4.60110
H         -0.74150       -2.06690       -4.18840
H         -0.43550       -1.96960       -1.73210
H         -1.75250       -0.94200        0.44280
H         -2.73160       -2.66450        1.86760
H          1.11370       -3.45480        3.59140
H          2.13360       -1.72670        2.15350
H          3.65520        0.25280       -2.79280
H          3.24350       -2.55820       -1.63900
H          3.43620       -2.05990       -3.41350
H          5.87940       -0.15930       -2.05460
H          8.44250        0.03040        1.21830
H          5.96700        0.26190        2.10920
