87

P          1.06640       -0.05550       -0.05010
C          0.08670       -0.41720        1.41880
C         -1.28760       -0.24020        1.51030
C         -1.95230       -0.53540        2.70210
C         -1.25090       -1.00530        3.82850
O         -1.87180       -1.29450        5.00070
C         -3.21730       -1.16620        5.24820
C          0.13320       -1.16250        3.73760
C          0.79670       -0.87060        2.54720
C          0.61140        1.67310       -0.25650
C          0.96980        2.61550        0.71140
C          0.51520        3.93420        0.60630
C         -0.28960        4.33360       -0.46640
O         -0.72330        5.62040       -0.48650
C         -1.28080        6.28930       -1.55680
C         -0.63660        3.38580       -1.45290
C         -0.18940        2.06280       -1.34120
C          0.49740       -1.45190       -1.10250
C         -0.87230       -1.60160       -1.40120
C         -1.34340       -2.68540       -2.14570
C         -0.44930       -3.65140       -2.63260
O         -0.85470       -4.74340       -3.33090
C         -2.16530       -5.12380       -3.53450
C          0.91390       -3.48830       -2.38450
C          1.37670       -2.40450       -1.63420
Cu         3.52640       -0.05550       -0.05010
Br         3.76960       -2.42630        0.69380
C          3.37410       -0.00840       -2.13800
C          3.95850       -0.83590       -2.98960
P          5.98640       -0.05550       -0.05010
O          7.31450       -1.12880       -0.26540
C          6.87450       -2.16110       -1.17600
C          7.10440       -1.79540       -2.66000
C          7.57830       -3.49510       -0.92020
O          6.38530        0.76390       -1.49370
C          5.88290        2.06650       -1.62460
C          6.53180        3.05890       -0.65450
C          6.21870        2.47310       -3.06630
O          6.52680        0.46600        1.48930
C          6.03220       -0.26850        2.58090
C          6.57180       -1.70810        2.63210
C          6.53510        0.46130        3.83340
H         -1.87190        0.15020        0.69740
H         -3.02860       -0.38410        2.74200
H         -3.44450       -1.49010        6.28300
H         -3.80000       -1.78490        4.53740
H         -3.51420       -0.09490        5.14350
H          0.69920       -1.51070        4.59630
H          1.87290       -0.99090        2.50850
H          1.57440        2.32240        1.56170
H          0.77940        4.64910        1.37510
H         -1.64530        7.27920       -1.21050
H         -2.14500        5.73580       -1.97750
H         -0.50640        6.45060       -2.33430
H         -1.27300        3.64980       -2.28840
H         -0.49320        1.33600       -2.08400
H         -1.60260       -0.89200       -1.07090
H         -2.40650       -2.76210       -2.33110
H         -2.18410       -6.06600       -4.11950
H         -2.71590       -4.34210       -4.09850
H         -2.66140       -5.30850       -2.55690
H          1.62250       -4.21460       -2.76240
H          2.42400       -2.34020       -1.47630
H          2.71340        0.75040       -2.54710
H          4.51170       -1.67830       -2.62760
H          3.79740       -0.71840       -4.05660
H          5.80510       -2.41380       -1.03310
H          8.17430       -1.60780       -2.85860
H          6.54770       -0.90980       -2.99740
H          6.73900       -2.61860       -3.31460
H          8.66780       -3.40230       -1.09860
H          7.17720       -4.26300       -1.62650
H          7.38520       -3.86400        0.10620
H          4.78240        2.08760       -1.50450
H          7.63750        3.05550       -0.76180
H          6.26290        2.81250        0.39100
H          6.15210        4.08190       -0.86670
H          7.32140        2.44650       -3.22750
H          5.84740        3.48990       -3.30410
H          5.76300        1.75090       -3.77930
H          4.92000       -0.24710        2.59270
H          7.68150       -1.71340        2.62490
H          6.22950       -2.30730        1.77430
H          6.21080       -2.21240        3.55430
H          7.64970        0.46780        3.85000
H          6.17280       -0.03010        4.76000
H          6.19260        1.51790        3.83100
