71

P          0.92680       -0.02480        0.06340
C          0.06320       -0.85060       -1.39840
C         -1.46770       -0.87380       -1.52250
C          0.62710       -0.23950       -2.69550
C          0.56900       -1.02730        1.58600
C          1.18080       -0.31920        2.79970
C         -0.93890       -1.16700        1.86300
C          0.13050        1.61580       -0.04100
Cu         3.38680       -0.02480        0.06340
Br         2.96470       -2.39460       -0.59810
C          3.42660        1.25960       -1.57060
C          2.90060        2.47980       -1.58050
C          5.53680       -0.02480        0.06340
N          6.38200       -1.11890        0.14330
C          5.92590       -2.51990        0.20490
C          6.86530       -3.54020        0.85820
C          6.24330       -4.94050        0.90040
C          7.17970       -5.90820        1.62290
C          7.64260       -0.59210        0.11170
C          7.55760        0.77350        0.08490
C          8.70260        1.58680        0.07000
C          9.96340        0.97420        0.07200
C         10.06470       -0.41950        0.08110
C          8.91520       -1.21660        0.10500
N          6.25920        1.14170        0.07170
C          5.79110        2.53490        0.12370
C          4.91680        2.80570        1.36580
C          5.65570        2.49680        2.68010
C          4.80900        2.85590        3.90120
H          0.38650       -1.91120       -1.40380
H         -1.90470        0.14010       -1.55640
H         -1.96960       -1.48620       -0.76920
H         -1.72960       -1.38390       -2.47860
H          0.33510        0.82370       -2.81130
H          0.26300       -0.78930       -3.58920
H          1.73070       -0.31920       -2.71560
H          1.01170       -2.03980        1.50500
H          0.72980        0.68920        2.93670
H          2.27750       -0.21520        2.68460
H          0.98170       -0.90810        3.72320
H         -1.44390       -0.17490        1.88000
H         -1.11940       -1.65800        2.84250
H         -1.42020       -1.83150        1.14050
H         -0.96750        1.46870        0.04960
H          0.31130        2.13020       -0.99870
H          0.44180        2.24770        0.81240
H          3.94530        0.90430       -2.45680
H          2.41220        2.87670       -0.70410
H          2.98190        3.08910       -2.47560
H          5.65160       -2.85430       -0.81910
H          5.06340       -2.53430        0.89640
H          7.09640       -3.19560        1.89150
H          7.76920       -3.69320        0.26620
H          6.08730       -5.29840       -0.14260
H          5.26240       -4.92660        1.42140
H          8.17510       -5.93080        1.12800
H          6.75380       -6.93220        1.60860
H          7.31170       -5.58840        2.67880
H          8.66100        2.66360        0.05350
H         10.86080        1.57910        0.05420
H         11.04290       -0.88650        0.07010
H          9.10220       -2.26170        0.10540
H          5.26050        2.80320       -0.79820
H          6.63240        3.24710        0.17160
H          3.98930        2.19850        1.31540
H          4.63060        3.88200        1.35460
H          6.60740        3.06970        2.73290
H          5.89110        1.41190        2.71910
H          4.62730        3.95170        3.93900
H          5.34600        2.55880        4.82750
H          3.83350        2.32550        3.87310
