76

P          0.92280       -0.05310        0.03500
C         -0.12350       -0.45890       -1.51070
C         -1.55910       -0.57590       -1.54560
C         -2.46550       -0.21120       -0.41950
C         -2.23380       -0.94210       -2.73840
C         -1.57980       -1.13740       -3.92950
C         -2.32000       -1.54360       -5.18690
C         -0.21150       -0.89130       -3.97790
C          0.51410       -0.54080       -2.82090
C          1.92780       -0.07500       -3.12680
C          0.41100       -1.79380        0.94910
C          0.60060       -3.20560        0.51850
C          0.95550       -3.79760       -0.81470
C          0.36550       -4.31170        1.39160
C         -0.14790       -4.18810        2.65200
C         -0.45800       -5.38580        3.55370
C         -0.49550       -2.92240        3.05690
C         -0.27690       -1.76700        2.26420
C         -0.96370       -0.59340        2.89200
C          0.34640        1.69140        0.64330
C         -0.42480        2.58340       -0.22340
C         -0.72890        2.44530       -1.69660
C         -0.97070        3.78280        0.25750
C         -0.74970        4.23200        1.53650
C         -1.36390        5.53280        1.98950
C          0.05390        3.48240        2.38140
C          0.60510        2.23170        2.00340
C          1.43580        1.59330        3.15540
Cu         3.38280       -0.05310        0.03500
Br         3.38280       -2.34980       -1.16220
C          3.38280        1.85340        1.02880
C          4.29530        2.30330        1.90270
O          5.43280       -0.05310        0.03500
C          6.29940        0.92700        0.26740
N          7.57870        0.52750        0.13790
C          7.49280       -0.76280       -0.20040
C          6.16830       -1.10420       -0.28610
H         -1.91860        0.26020        0.39660
H         -3.08280       -1.06990       -0.09780
H         -3.15790        0.58430       -0.79420
H         -3.32390       -1.03440       -2.72560
H         -3.40400       -1.68040       -5.00070
H         -1.90960       -2.49930       -5.56600
H         -2.20120       -0.76950       -5.98230
H          0.26750       -0.95230       -4.94950
H          1.97700        0.28470       -4.18870
H          2.67870       -0.86650       -3.13480
H          2.19300        0.85070       -2.57650
H          0.97040       -3.05900       -1.62680
H          0.18770       -4.54000       -1.12060
H          1.88720       -4.41490       -0.72010
H          0.53480       -5.34000        1.07390
H         -0.16380       -6.34170        3.07110
H         -1.53480       -5.42160        3.75510
H          0.08510       -5.29900        4.51280
H         -0.98210       -2.85880        4.03400
H         -1.25230       -0.75260        3.95420
H         -1.89580       -0.38640        2.36010
H         -0.43200        0.29160        2.91170
H         -0.05120        1.80520       -2.24740
H         -0.51090        3.41320       -2.20320
H         -1.80780        2.24560       -1.87050
H         -1.57210        4.40720       -0.40190
H         -2.02790        5.97100        1.20940
H         -0.57200        6.27440        2.21700
H         -1.98380        5.36400        2.89440
H          0.22840        3.88390        3.37230
H          1.12550        1.98120        4.15310
H          2.43800        1.97260        3.25560
H          1.58550        0.49650        3.13450
H          2.61920        2.55470        0.76830
H          5.09040        1.67830        2.28470
H          4.21180        3.30990        2.30250
H          6.08950        1.96130        0.43480
H          8.34060       -1.40990       -0.38230
H          5.84110       -2.09160       -0.54110
