34

P          0.98300       -0.07130        0.06800
Cl        -0.61120       -1.36050       -0.24330
Cl         1.06980       -0.76340        2.02290
Cl        -0.39470        1.42520       -0.34080
Cu         3.44300       -0.07130        0.06800
Br         2.99620        2.25260        0.83000
C          3.06590       -2.00830       -0.58540
C          3.21040       -3.08540        0.18580
C          5.59300       -0.07130        0.06800
N          6.35820       -1.06750       -0.29550
C          5.97970       -2.41750       -0.69690
C          7.02140       -3.17450       -1.52840
C          7.76940       -0.74160       -0.14650
C          7.79370        0.73740        0.07990
N          6.41960        1.07000        0.38160
C          6.00960        2.40860        0.73680
C          7.18210        3.37490        0.98510
H          2.71970       -2.13330       -1.60740
H          3.56490       -2.99110        1.20450
H          3.00840       -4.07040       -0.22660
H          5.18550       -2.35240       -1.43820
H          5.76570       -3.00670        0.21810
H          7.17500       -2.65310       -2.50010
H          6.61250       -4.18470       -1.75340
H          7.98400       -3.30830       -1.00620
H          8.40530       -0.98870       -1.02400
H          8.13800       -1.27970        0.76070
H          8.04650        1.26340       -0.86660
H          8.51990        1.00480        0.87850
H          5.45960        2.37690        1.69450
H          5.41810        2.83110       -0.09820
H          7.79120        3.03100        1.84660
H          6.77820        4.38440        1.23730
H          7.82540        3.47990        0.08770
