69

P          1.05310        0.05810        0.06160
C          0.21380       -1.69070        0.22650
C         -1.32930       -1.73410        0.32150
C          0.62110       -2.57010       -0.98400
C          0.74300       -2.48970        1.44290
C          0.68060        1.12720        1.71090
C          1.16140        0.65920        3.12160
C          1.33500        2.54400        1.66100
C         -0.84240        1.31060        1.88960
C          0.15890        0.59850       -1.56820
C         -0.03710        2.05120       -2.25070
C          1.25560        2.67090       -2.68310
C         -0.87800        1.89710       -3.54430
C         -0.77590        3.11150       -1.41230
Cu         3.51310        0.05810        0.06160
Br         3.51310       -1.01310        2.41970
C          3.51310        0.94740       -1.89590
C          3.97260        2.10320       -2.42440
N          5.61310        0.05810        0.06160
C          6.29190        0.95960       -0.68790
C          7.65450        1.01740       -0.79240
C          8.46030        0.07140       -0.17600
N          9.88960        0.07360       -0.39980
C         10.60820        1.21380       -0.97860
C         10.72240       -1.08640       -0.13480
C          7.78760       -0.88030        0.64880
C          6.36440       -0.83440        0.78060
H         -1.84260       -1.31830       -0.55780
H         -1.72130       -1.28530        1.23590
H         -1.66830       -2.79260        0.38990
H          0.25260       -2.17880       -1.94610
H          0.19380       -3.59630       -0.88310
H          1.72620       -2.69140       -1.03760
H          0.47500       -2.04480        2.40350
H          1.82890       -2.66840        1.36370
H          0.30330       -3.51070        1.48620
H          2.22500        0.88710        3.30600
H          0.88820       -0.35410        3.42030
H          0.71650        1.28790        3.92610
H          2.44020        2.47560        1.62060
H          1.07510        3.12870        2.58040
H          1.06150        3.20990        0.86890
H         -1.30700        0.38990        2.26400
H         -1.34080        1.65950        0.96960
H         -1.07230        2.04300        2.69740
H         -0.89260        0.33030       -1.39800
H          0.55430       -0.06520       -2.36110
H          1.71720        1.97940       -3.41900
H          1.82590        2.88140       -1.75760
H          1.14150        3.64310       -3.20870
H         -0.40460        1.18750       -4.25530
H         -0.95950        2.87840       -4.07290
H         -1.90630        1.55720       -3.31490
H         -0.20810        3.43580       -0.56470
H         -1.77010        2.77360       -1.07620
H         -0.89320        4.05350       -1.99710
H          3.14220        0.23020       -2.62150
H          4.37630        2.93490       -1.86220
H          3.92130        2.23730       -3.50410
H          5.82350        1.73510       -1.16760
H          8.02460        1.81340       -1.41190
H         10.00860        2.12300       -1.15010
H         11.06230        0.91900       -1.94840
H         11.41770        1.52570       -0.28940
H         10.16590       -1.96500        0.21890
H         11.49580       -0.81710        0.60990
H         11.22630       -1.39220       -1.07570
H          8.29830       -1.67000        1.14390
H          5.89350       -1.60070        1.37670
