60

P          1.04570        0.08020       -0.03850
C          0.37500        0.76070       -1.58000
C         -0.81650        0.38870       -2.22570
C         -1.14360        0.96460       -3.46930
C         -0.29790        1.92350       -4.04920
C          0.87350        2.31830       -3.39610
C          1.19860        1.73320       -2.17590
C          0.75370       -1.67940       -0.44560
C          0.61170       -2.23450       -1.73840
C          0.35140       -3.60650       -1.89990
C          0.22010       -4.42430       -0.78700
C          0.33570       -3.89450        0.49670
C          0.60780       -2.53400        0.66020
C          0.23780        1.03110        1.31090
C          0.59850        0.83640        2.67870
O          1.53300       -0.10330        3.00400
C          2.25470       -0.18000        4.18680
C          0.03790        1.67610        3.66640
C         -0.91020        2.63810        3.32570
C         -1.32390        2.77180        2.00420
C         -0.75020        1.98540        1.00470
Cu         3.50570        0.08020       -0.03850
Br         3.50570       -1.37160       -2.18330
C          3.50570        1.28530        1.74200
C          4.49980        1.51700        2.60910
N          5.60570        0.08020       -0.03850
C          6.28630        1.22740        0.25850
C          7.67460        1.31930        0.02660
O          8.35260        2.49600        0.06250
C          7.76400        3.74500       -0.01230
C          8.36820        0.17380       -0.36040
C          7.66990       -0.99680       -0.63130
C          6.27910       -0.99770       -0.53600
H         -1.46850       -0.36080       -1.80130
H         -2.03210        0.65890       -3.99700
H         -0.54090        2.36270       -5.00970
H          1.51840        3.06180       -3.83530
H          2.12000        2.04230       -1.69210
H          0.71520       -1.63800       -2.63010
H          0.26250       -4.01750       -2.89550
H          0.00080       -5.48220       -0.90790
H          0.21900       -4.52780        1.36120
H          0.68530       -2.14800        1.66750
H          3.25040       -0.62460        3.96880
H          1.73700       -0.81800        4.92690
H          2.46280        0.82950        4.60820
H          0.33280        1.60160        4.70410
H         -1.33040        3.27830        4.09080
H         -2.08040        3.50170        1.74950
H         -1.09070        2.13940       -0.00670
H          2.61410        1.83470        1.94560
H          5.46980        1.05040        2.55340
H          4.33070        2.20650        3.43200
H          5.73540        2.12160        0.50140
H          8.54570        4.50780       -0.20970
H          7.23610        3.98640        0.93030
H          7.05000        3.78540       -0.86920
H          9.43920        0.20440       -0.51420
H          8.19600       -1.88520       -0.95690
H          5.74780       -1.90380       -0.78060
