31

P          0.92770        0.06500       -0.02350
C         -0.39720        0.13680       -1.27090
C          0.73480       -1.69910        0.37420
C          0.37530        1.49350        0.95880
Cu         3.38770        0.06500       -0.02350
Br         3.38770       -0.07150        2.56290
C          3.38770        0.17830       -2.17050
C          3.91930        1.22880       -2.78740
O          5.43770        0.06500       -0.02350
C          6.14670       -0.28210        1.12760
C          5.97030       -1.78860        1.38250
C          7.62970       -0.03190        0.82740
H         -1.39260       -0.02010       -0.82110
H         -0.20640       -0.64660       -2.04040
H         -0.35790        1.12140       -1.78580
H         -0.33880       -1.94480        0.51450
H          1.27890       -1.93080        1.31080
H          1.14990       -2.31320       -0.45180
H         -0.72620        1.41690        1.10940
H          0.59080        2.43730        0.41990
H          0.85520        1.49230        1.95460
H          2.91500       -0.61140       -2.74520
H          4.37890        2.03520       -2.21070
H          3.90340        1.29830       -3.87520
H          5.88550        0.35610        1.98960
H          6.28760       -2.37100        0.48830
H          4.91530       -2.06370        1.57960
H          6.58400       -2.11730        2.24880
H          7.95030       -0.62790       -0.05640
H          8.26100       -0.32270        1.69370
H          7.79870        1.03990        0.60400
