46

P          1.02270        0.09700       -0.00840
O          0.58390       -0.18530        1.62320
C         -0.74380        0.22440        1.86060
C         -1.04900        0.05070        3.34000
O          0.91530        1.50500       -0.95930
C          1.51770        2.53530       -0.20150
C          1.16580        3.89510       -0.78460
C         -0.29600       -0.78030       -0.89530
C         -1.10790       -0.25320       -1.91590
C         -2.03930       -1.08170       -2.56200
C         -2.17250       -2.42960       -2.19260
C         -1.37270       -2.95100       -1.18280
C         -0.43980       -2.13820       -0.54400
Cu         3.48270        0.09700       -0.00840
Br         3.48270        0.35160       -2.58590
C          3.48270       -0.11430        2.13120
C          4.35090       -0.76020        2.92130
N          5.58270        0.09700       -0.00840
C          6.27220       -0.21760       -1.15580
C          7.66810       -0.30870       -1.17970
C          8.39570       -0.01920       -0.03380
Cl        10.14600       -0.12970       -0.03540
C          7.71890        0.36830        1.11170
C          6.32360        0.41190        1.10540
H         -1.46700       -0.42670        1.32530
H         -0.89770        1.29110        1.58710
H         -0.89670       -1.01010        3.63680
H         -2.10590        0.32620        3.54140
H         -0.38100        0.69650        3.94680
H          2.62410        2.42260       -0.22630
H          1.15910        2.55470        0.85610
H          1.49690        3.95940       -1.84130
H          1.67750        4.69000       -0.19890
H          0.06960        4.06530       -0.72670
H         -1.01740        0.77420       -2.23500
H         -2.65630       -0.68890       -3.35640
H         -2.88930       -3.06600       -2.69450
H         -1.46800       -3.99710       -0.89670
H          0.18480       -2.57500        0.22910
H          2.61150        0.25820        2.64890
H          5.22070       -1.27920        2.54290
H          4.16730       -0.80450        3.99120
H          5.78220       -0.50550       -2.05880
H          8.17620       -0.62090       -2.08310
H          8.26470        0.63730        2.00760
H          5.87210        0.78540        2.00030
