77

P          0.93260        0.07090       -0.02060
C          0.37430        0.10220       -1.89990
C          0.99470        1.28940       -2.68810
C          2.48400        1.04270       -2.99770
C          2.71430       -0.24600       -3.78820
C          2.06380       -1.43300       -3.07730
C          0.58980       -1.13040       -2.83250
C          0.05490       -1.40250        0.89720
C         -1.48560       -1.31490        0.80020
C         -2.02190       -1.95400       -0.50020
C         -1.53640       -3.40730       -0.67750
C         -0.02010       -3.61010       -0.42030
C          0.34000       -2.94670        0.89550
C          0.25260        1.77680        0.49800
C         -0.97400        2.40930       -0.00730
C         -2.00700        1.85350       -0.96120
C         -1.38820        3.66570        0.46560
C         -0.73010        4.32710        1.47570
C         -1.26610        5.64000        1.98450
C          0.37200        3.71810        2.05540
C          0.84700        2.46390        1.62510
C          1.95700        1.90680        2.48770
Cu         3.39260        0.07090       -0.02060
Br         3.41660        2.58370       -0.15750
C          3.54270       -2.03010        0.01540
C          4.57730       -2.74730       -0.46880
C          5.54260        0.07090       -0.02060
N          6.32320       -0.83050        0.68560
C          5.99800       -1.82320        1.71850
C          7.61460       -0.53670        0.42460
Cl         9.00950       -1.37940        1.08610
C          7.65000        0.55770       -0.38050
Cl         9.14580        1.29710       -0.95330
N          6.38220        0.98970       -0.62180
C          6.11610        2.10840       -1.51460
H         -0.67130        0.23820       -1.99970
H          0.83760        2.24080       -2.15580
H          0.46870        1.38140       -3.66870
H          3.03540        0.92120       -2.06750
H          2.89490        1.90520       -3.56480
H          3.80650       -0.42450       -3.89990
H          2.27050       -0.14710       -4.80220
H          2.54390       -1.61140       -2.11640
H          2.18610       -2.34620       -3.69690
H          0.01400       -1.99400       -2.52920
H          0.14000       -0.92560       -3.83290
H          0.29800       -1.13070        1.94730
H         -1.82920       -0.27870        0.96590
H         -1.93030       -1.89160        1.64320
H         -1.72560       -1.38550       -1.37100
H         -3.13280       -1.93000       -0.49740
H         -1.82490       -3.78540       -1.68340
H         -2.07250       -4.01780        0.07830
H          0.68820       -3.23230       -1.16190
H          0.17690       -4.70170       -0.38930
H          1.29800       -3.25930        1.31140
H         -0.30610       -3.42800        1.66280
H         -2.19010        0.78280       -0.84490
H         -1.90100        2.25210       -1.99020
H         -3.02400        2.14820       -0.61730
H         -2.28970        4.12610        0.06900
H         -2.17880        5.95590        1.43070
H         -0.50640        6.44070        1.88160
H         -1.54980        5.53040        3.05230
H          0.84480        4.22690        2.89410
H          1.60800        1.88400        3.54270
H          2.84560        2.57130        2.47330
H          2.25640        0.87910        2.21550
H          2.73740       -2.62160        0.23670
H          5.44910       -2.29920       -0.93070
H          4.54340       -3.83130       -0.49190
H          4.93580       -1.81350        2.01420
H          6.53900       -1.55380        2.65750
H          6.34370       -2.83720        1.42520
H          7.04980        2.46160       -2.01600
H          5.79560        2.99590       -0.95930
H          5.43630        1.80230       -2.33270
