67

P          1.08400        0.05400        0.00480
C          0.64080        0.22690       -1.89300
C          1.12440        1.60100       -2.46810
C          2.57440        1.57540       -3.01990
C          2.63530        0.70420       -4.28110
C          2.22580       -0.71130       -3.92660
C          0.93120       -0.83630       -3.03450
C          0.38560       -1.65200        0.32150
C          0.50920       -2.01250        1.84300
C         -0.49140       -1.27240        2.76600
C         -1.94040       -1.49030        2.32100
C         -2.10200       -1.05630        0.86610
C         -1.12280       -1.83130       -0.04540
C          0.31490        1.57350        0.84580
C         -0.75510        2.45080        0.38260
C         -1.66630        2.27250       -0.81060
C         -1.10460        3.59100        1.13120
C         -0.50100        3.88120        2.34470
C          0.43810        3.00800        2.85390
C          0.81640        1.87540        2.13190
Cu         3.54400        0.05400        0.00480
Br         3.54400       -2.06450       -1.48510
C          3.54400        1.81270        1.24160
C          4.36160        2.03680        2.27600
N          5.64400        0.05400        0.00480
C          6.38790        1.17020        0.32060
C          7.78450        1.18450        0.23970
C          8.46180        0.04150       -0.15180
F          9.81480        0.03710       -0.23940
C          7.73630       -1.09160       -0.47340
C          6.34100       -1.06060       -0.40600
H         -0.42860        0.20770       -1.88190
H          1.02780        2.40190       -1.71700
H          0.48230        1.88640       -3.33680
H          3.27760        1.21150       -2.22930
H          2.89760        2.59390       -3.31090
H          3.67410        0.69320       -4.68900
H          1.97260        1.10540       -5.07080
H          3.14830       -1.01960       -3.51820
H          2.15980       -1.37790       -4.81470
H          0.74740       -1.87240       -2.68400
H          0.14250       -0.64080       -3.79770
H          0.98020       -2.36530       -0.27830
H          1.54430       -1.83740        2.20370
H          0.28680       -3.09480        1.96610
H         -0.31880       -0.18810        2.77840
H         -0.38790       -1.60910        3.82190
H         -2.63150       -0.91030        2.96440
H         -2.20310       -2.56600        2.42690
H         -1.93140        0.02900        0.79580
H         -3.14640       -1.25440        0.54730
H         -1.31670       -1.58160       -1.10300
H         -1.37760       -2.90940        0.06420
H         -1.86400        1.24940       -1.11050
H         -1.46830        3.00120       -1.62070
H         -2.70540        2.46260       -0.45650
H         -1.88570        4.26600        0.78920
H         -0.78930        4.76340        2.89820
H          0.88770        3.21330        3.81730
H          1.55070        1.22840        2.59060
H          2.80030        2.56330        1.03530
H          5.10670        1.30720        2.57100
H          4.27590        2.95620        2.84640
H          5.94720        2.11670        0.54190
H          8.33500        2.09080        0.45860
H          8.24570       -1.99620       -0.78020
H          5.87060       -1.98250       -0.64940
