81

P          0.94170        0.07490        0.03150
C          0.56560        1.58820        0.96720
C         -0.56350        2.36570        0.62980
C         -0.84840        3.55550        1.30250
C         -0.01340        3.98120        2.33390
C          1.09500        3.21410        2.69680
C          1.39000        2.02130        2.01210
C          0.82170        0.09630       -1.80850
C          0.20250        1.18160       -2.47280
C          0.05020        1.19260       -3.86170
C          0.52390        0.13370       -4.62790
C          1.18690       -0.92000       -3.99960
C          1.35390       -0.92660       -2.61080
C         -0.32360       -1.06550        0.85160
C         -1.81380       -0.75730        0.65930
C         -2.26290       -1.09280       -0.76710
C         -2.04400       -2.59050       -1.05900
C         -0.60130       -3.03330       -0.79690
C         -0.11870       -2.58800        0.58590
Cu         3.40170        0.07490        0.03150
Br         3.40170        2.34920       -1.20780
C          3.40170       -1.81300        1.06020
C          2.92630       -1.94330        2.29810
P          5.86170        0.07490        0.03150
C          6.99900       -1.30580        0.61520
C          6.42180       -2.35130        1.37550
C          7.07490       -3.54320        1.67540
C          8.38110       -3.72520        1.27870
C          9.02750       -2.69720        0.58840
C          8.34360       -1.49500        0.24620
C          6.18590        0.15130       -1.74980
C          6.39400        1.36890       -2.40920
C          6.66010        1.39220       -3.78490
C          6.74530        0.19840       -4.50830
C          6.55570       -1.02200       -3.85840
C          6.26840       -1.04770       -2.48850
C          6.33240        1.49490        1.04600
C          7.69060        1.79790        1.23420
C          8.05890        2.83210        2.09560
C          7.07870        3.57060        2.75280
C          5.73180        3.26160        2.54010
O          4.86530        3.89910        3.11130
N          5.38790        2.22330        1.69920
H         -1.24150        2.06850       -0.15470
H         -1.70730        4.14690        1.01600
H         -0.23590        4.90490        2.85420
H          1.73060        3.54540        3.50660
H          2.25140        1.43910        2.30290
H         -0.18120        2.02710       -1.94630
H         -0.45040        2.02640       -4.34730
H          0.38580        0.14010       -5.70190
H          1.56890       -1.73720       -4.60410
H          1.88700       -1.75190       -2.15470
H         -0.10050       -0.93860        1.93540
H         -2.04790        0.28410        0.93750
H         -2.39750       -1.39410        1.36300
H         -1.70430       -0.46450       -1.48050
H         -3.34020       -0.86020       -0.87620
H         -2.30520       -2.80720       -2.11810
H         -2.71210       -3.18360       -0.40200
H          0.03280       -2.61170       -1.55910
H         -0.51230       -4.13690       -0.90200
H          0.93240       -2.90010        0.74220
H         -0.72490       -3.15410        1.33150
H          3.71070       -2.69390        0.50400
H          2.56100       -1.08300        2.84440
H          2.89050       -2.92770        2.75630
H          5.47110       -2.31470        1.75260
H          6.54050       -4.32420        2.21280
H          8.86680       -4.66670        1.50410
H         10.05430       -2.85570        0.28990
H          8.86680       -0.76060       -0.33780
H          6.34070        2.30010       -1.86420
H          6.80650        2.33550       -4.29330
H          6.96220        0.21920       -5.56970
H          6.63590       -1.94680       -4.41820
H          6.13290       -2.00830       -2.00570
H          8.46630        1.22740        0.74870
H          9.10660        3.05300        2.26170
H          7.36700        4.37030        3.42630
H          4.37940        1.99380        1.56920
