100

P          0.97450        0.07200        0.06450
C          0.04470        1.22480        1.25640
C          0.35440        2.73710        1.17800
C         -0.44060        3.38370        0.05830
C         -1.94700        3.13210        0.15300
C         -2.26920        1.63260        0.30790
C         -1.46990        1.03670        1.45820
C          0.71840        0.63210       -1.83960
C          0.99870        1.88370       -2.80070
C          2.37550        1.96790       -3.44970
C          2.70740        0.72050       -4.24110
C          2.53080       -0.51760       -3.36590
C          1.11210       -0.57200       -2.79050
C          0.18910       -1.63730        0.57680
C         -0.62130       -2.44000       -0.34180
C         -1.25450       -2.07550       -1.66790
C         -0.98420       -3.76820       -0.05700
C         -0.66490       -4.37290        1.12880
C         -1.04110       -5.82270        1.33650
C         -0.04130       -3.61650        2.10500
C          0.37170       -2.27210        1.88320
C          0.96870       -1.59870        3.08980
Cu         3.43450        0.07200        0.06450
Br         3.89300        2.48290       -0.41630
C          3.45150       -1.76590        0.98770
C          4.35170       -2.22660        1.85550
P          5.89450        0.07200        0.06450
C          6.54450        1.35850       -1.11070
C          7.25410        2.55530       -0.82730
C          7.49020        3.51360       -1.82120
C          6.99680        3.32730       -3.10960
C          6.28840        2.17440       -3.41600
C          6.07670        1.19290       -2.43640
C          6.35670        0.83560        1.66470
C          5.44660        0.91820        2.73400
C          5.85350        1.43180        3.97700
C          7.15580        1.90770        4.15390
C          8.07030        1.81920        3.10910
C          7.68740        1.24520        1.89720
C          6.70010       -1.62550       -0.24570
C          6.13680       -2.98410       -0.37510
O          4.80500       -3.26510       -0.49880
C          4.14890       -4.49260       -0.29950
C          7.02010       -4.09010       -0.39530
C          8.38780       -3.92970       -0.42790
C          8.92740       -2.65770       -0.46900
C          8.10320       -1.53670       -0.35730
H          0.49820        0.92920        2.21900
H          1.44490        2.91350        1.06440
H          0.04230        3.23620        2.12400
H         -0.12770        2.88190       -0.80680
H         -0.21570        4.46950       -0.02680
H         -2.44070        3.51350       -0.76870
H         -2.33780        3.69330        1.02450
H         -2.03850        1.06870       -0.60790
H         -3.35490        1.51380        0.50020
H         -1.72020       -0.02700        1.63370
H         -1.76140        1.59170        2.38270
H         -0.36600        0.72220       -1.81740
H          0.76080        2.90340       -2.49620
H          0.29870        1.76060       -3.67040
H          3.12510        2.09980       -2.69980
H          2.41800        2.84980       -4.12590
H          3.75120        0.78520       -4.61430
H          2.03310        0.66200       -5.12480
H          3.25580       -0.53490       -2.53050
H          2.70450       -1.40620       -4.01520
H          1.04180       -1.54990       -2.29850
H          0.42220       -0.58120       -3.67400
H         -1.22870       -1.04250       -1.93200
H         -2.34850       -2.26510       -1.61670
H         -0.85280       -2.71170       -2.49160
H         -1.53420       -4.35350       -0.78760
H         -1.51020       -6.26350        0.42590
H         -1.76000       -5.92850        2.17280
H         -0.12680       -6.41790        1.54550
H          0.13350       -4.10380        3.05710
H          1.06890       -2.30670        3.94550
H          0.27180       -0.82150        3.45120
H          1.96130       -1.16740        2.91270
H          2.57930       -2.36430        0.83010
H          5.22750       -1.66730        2.14330
H          4.18360       -3.19600        2.31940
H          7.61080        2.85290        0.13940
H          8.02370        4.42660       -1.58850
H          7.13990        4.09500       -3.86510
H          5.87170        2.04720       -4.40480
H          5.48230        0.33260       -2.69630
H          4.43640        0.54950        2.62870
H          5.16210        1.46490        4.80820
H          7.46270        2.33240        5.10190
H          9.08250        2.18590        3.23690
H          8.43990        1.15490        1.12720
H          3.19370       -4.34930        0.24670
H          4.70300       -5.19980        0.35500
H          3.88160       -4.95410       -1.26930
H          6.66700       -5.11250       -0.41410
H          9.02590       -4.80440       -0.45880
H          9.99800       -2.54780       -0.56660
H          8.58680       -0.57290       -0.37170
