34

P          1.36510        0.52880       -0.01760
O          0.28150        1.83540       -0.18460
C         -1.05910        1.46540       -0.24770
C         -1.28960       -0.00420        0.02920
C         -2.81730       -0.24370        0.04470
C         -0.56290       -0.79540       -1.10390
O          0.79150       -0.37970       -1.35060
O          0.78180        0.00820        1.50690
C         -0.61200       -0.34360        1.40090
Cu         3.71720        0.03840        0.00590
Br         3.38380       -2.42210        0.15130
C          3.79470        2.11430       -0.07120
C          3.77330        2.78660       -1.22260
O          5.72640       -0.07660        0.00830
C          6.46620       -1.16900        0.06740
C          7.80160       -0.80610        0.03250
C          7.83820        0.55730       -0.05180
C          6.52900        0.97590       -0.06230
H         -1.43800        1.73650       -1.25880
H         -1.59730        2.08230        0.50540
H         -3.26070        0.06660       -0.92940
H         -3.29170        0.39380        0.82640
H         -3.08480       -1.29920        0.23990
H         -1.12410       -0.62260       -2.04850
H         -0.61530       -1.88890       -0.89640
H         -1.15140        0.21250        2.19840
H         -0.75140       -1.42890        1.61270
H          3.81870        2.65970        0.86540
H          3.73390        2.26610       -2.17280
H          3.79490        3.87220       -1.21030
H          6.10920       -2.17980        0.12580
H          8.66430       -1.46760        0.06040
H          8.71840        1.19520       -0.10750
H          6.24580        2.01040       -0.12760
