58

P          0.93730        0.05040        0.05930
C         -0.15920        0.18610        1.62350
C         -1.68080        0.32970        1.45980
C          0.02080       -1.08450        2.48360
C          0.31030        1.42470        2.43890
C          0.64570        1.66930       -0.74730
C          1.71790        2.54670       -0.97480
C          1.48490        3.82310       -1.50290
C          0.18210        4.24580       -1.78300
C         -0.88930        3.38020       -1.56720
C         -0.65510        2.09970       -1.06300
C          0.40030       -1.52270       -0.65180
C         -0.75280       -1.58260       -1.45080
C         -1.24880       -2.81550       -1.88900
C         -0.59970       -3.99960       -1.53160
C          0.54730       -3.95190       -0.73480
C          1.04430       -2.71860       -0.29060
Cu         3.39730        0.05040        0.05930
Br         3.39730       -0.11130       -2.52560
C          3.39730        0.18470        2.20510
C          3.29000       -0.83200        3.05980
N          5.49730        0.05040        0.05930
C          6.29760       -0.30110        1.14530
O          5.75460       -0.85300        2.25140
C          6.40760       -1.48320        3.29740
C          7.70510       -0.21880        1.06550
C          8.31630        0.23270       -0.08440
C          7.53440        0.56940       -1.16870
C          6.14570        0.44860       -1.08910
H         -2.10290       -0.50870        0.87560
H         -1.98000        1.31100        1.06710
H         -2.15520        0.30900        2.47120
H         -0.43640       -1.97090        2.00450
H         -0.42180       -0.96130        3.49720
H          1.05420       -1.34550        2.62890
H          0.19800        2.36090        1.85360
H          1.35660        1.37250        2.75680
H         -0.26990        1.54610        3.37920
H          2.72740        2.25060       -0.73660
H          2.31130        4.49550       -1.67880
H          0.00260        5.24390       -2.16910
H         -1.90000        3.70750       -1.78230
H         -1.51320        1.46050       -0.93690
H         -1.28930       -0.68430       -1.71340
H         -2.14800       -2.85550       -2.49120
H         -0.99430       -4.95320       -1.86170
H          1.03780       -4.87370       -0.44750
H          1.91390       -2.70100        0.35370
H          3.59840        1.17010        2.61370
H          3.18270       -1.84990        2.70300
H          3.35990       -0.64210        4.12780
H          5.65810       -1.86760        4.02000
H          7.06920       -0.77050        3.82850
H          6.98660       -2.35540        2.92210
H          8.33960       -0.51650        1.88920
H          9.39480        0.31070       -0.13310
H          8.00230        0.94100       -2.07120
H          5.62950        0.79170       -1.95350
