82

P          0.95140        0.00610       -0.08720
C          0.29290        1.53900       -0.81310
C         -0.78280        1.66850       -1.71110
C         -1.08950        2.92830       -2.25340
C         -0.35570        4.06290       -1.88230
C          0.68450        3.94400       -0.96560
C          1.00780        2.69360       -0.44260
C          0.72880       -1.08430       -1.58100
C          0.66010       -0.66080       -2.93160
C          0.59240       -1.58540       -3.98090
C          0.54780       -2.95100       -3.71890
C          0.56340       -3.39680       -2.40290
C          0.65510       -2.47520       -1.35220
C          0.07500       -0.12020        1.53060
C          0.24080       -1.25020        2.41560
C          1.12540       -2.42980        2.12990
C         -0.43090       -1.26510        3.64970
C         -1.22380       -0.19730        4.05250
C         -1.39220        0.89730        3.21220
C         -0.76040        0.93600        1.96550
Cu         3.41140        0.00610       -0.08720
Br         3.41140        0.24760       -2.66590
C          3.41140       -0.19430        2.05350
C          2.62940        0.27780        3.02190
P          5.87140        0.00610       -0.08720
C          6.80110        0.27820        1.47160
C          6.87110       -0.71050        2.48460
C          7.44740       -0.43890        3.72530
C          7.91950        0.83970        4.00790
C          7.81400        1.84700        3.04540
C          7.25890        1.57070        1.78600
C          6.27970       -1.75400       -0.32150
C          5.36600       -2.63520       -0.90520
C          5.69040       -3.99620       -1.06500
C          6.92050       -4.48660       -0.61000
C          7.84560       -3.61690       -0.03800
C          7.54470       -2.26130        0.07780
C          6.38140        1.16720       -1.43950
C          7.69310        1.20800       -1.97170
O          8.69050        0.55320       -1.33380
C         10.03000        0.86560       -1.50780
C          7.95000        1.97190       -3.14240
C          6.94310        2.71250       -3.75520
C          5.70210        2.79770       -3.14610
C          5.45060        2.07640       -1.97660
H         -1.35600        0.80640       -2.02410
H         -1.88850        3.02550       -2.97500
H         -0.59120        5.02840       -2.30630
H          1.25260        4.81710       -0.66720
H          1.83560        2.62380        0.25530
H          0.72170        0.37740       -3.20950
H          0.58980       -1.23980       -5.00510
H          0.50120       -3.66350       -4.53260
H          0.51590       -4.45900       -2.19420
H          0.67120       -2.88380       -0.36590
H          1.83990       -2.24490        1.30710
H          0.51100       -3.33020        1.92140
H          1.75080       -2.64630        3.02330
H         -0.30020       -2.09850        4.33140
H         -1.70100       -0.21500        5.02560
H         -2.00710        1.72720        3.53430
H         -0.92110        1.81800        1.36890
H          4.29020       -0.70200        2.41420
H          1.78740        0.91770        2.85690
H          2.89330        0.05510        4.05430
H          6.46620       -1.70140        2.33560
H          7.50210       -1.21680        4.47720
H          8.34260        1.05210        4.98200
H          8.14450        2.84830        3.28920
H          7.14980        2.37990        1.07640
H          4.40970       -2.27660       -1.26480
H          4.99000       -4.67050       -1.53150
H          7.16050       -5.53860       -0.69970
H          8.79850       -3.99180        0.32300
H          8.29720       -1.62450        0.52050
H         10.63920        0.34340       -0.74650
H         10.18870        1.96200       -1.36400
H         10.37160        0.57670       -2.52250
H          8.92870        1.99340       -3.60430
H          7.13620        3.25540       -4.67350
H          4.92430        3.40960       -3.59140
H          4.47940        2.19490       -1.51550
