39

P          1.27500        0.00000        0.00000
N          0.24090        1.44360       -0.15100
C         -1.18700        1.20510       -0.25860
C         -1.47470       -0.26750        0.00170
C         -3.00460       -0.45650        0.00470
C         -0.80570       -1.08910       -1.16870
N          0.63260       -0.78130       -1.42480
N          0.61100       -0.43260        1.55870
C         -0.86070       -0.64630        1.40880
Cu         3.73500        0.00030       -0.00050
Br         3.73540       -2.56430        0.36080
C          3.73470        2.12930       -0.30040
C          3.67180        2.98450        0.71750
N          5.83500        0.00060       -0.00090
C          6.54040        1.17710       -0.14940
C          7.93710        1.21130       -0.19020
C          8.65460        0.02960       -0.10630
F         10.00840        0.04100       -0.16780
C          7.96970       -1.16380        0.03630
C          6.57370       -1.15910        0.10060
H          0.57740        2.01920       -0.96350
H         -1.55270        1.50160       -1.26660
H         -1.69040        1.85710        0.48400
H         -3.43760       -0.13860       -0.97080
H         -3.47110        0.17870        0.79240
H         -3.27430       -1.51210        0.19090
H         -1.36450       -0.90190       -2.11470
H         -0.91660       -2.16860       -0.94310
H          0.73110       -0.11230       -2.22290
H          0.80100        0.36040        2.21320
H         -1.38430       -0.05700        2.19860
H         -1.08190       -1.71230        1.61130
H          3.76510        2.50500       -1.31810
H          3.63350        2.62390        1.73790
H          3.66560        4.05320        0.52200
H          6.07680        2.13520       -0.23110
H          8.45740        2.15310       -0.29830
H          8.51380       -2.09880        0.09040
H          6.14960       -2.12670        0.19140
