89

P         -1.35000        0.00100        0.79800
N         -1.37770       -0.31830       -0.99090
C         -2.26970        0.62680       -1.70420
C         -0.29530       -0.73410       -1.91150
C          0.89280       -1.38150       -1.29060
N          1.71260       -0.55780       -0.35990
C          1.73150        0.90180       -0.04090
C          0.51390        1.76850       -0.39200
N         -0.69610        1.66320        0.48770
C         -0.59170        2.51080        1.67790
N         -0.36320       -1.49150        1.29180
C         -1.04320       -2.45070        2.17100
C          1.04570       -1.31590        1.82500
C          2.14630       -1.36830        0.74980
Cu        -3.32260        0.00260        2.26790
Br        -1.81990        0.62400        4.28380
C         -4.57000       -0.51330        0.59440
C         -4.14450       -1.31450       -0.40480
C         -5.04660        0.00400        3.55250
N         -5.84600       -1.24820        3.89110
C         -6.15360       -2.78230        3.45350
C         -7.01220       -3.86970        3.94730
C         -7.69730       -3.86460        5.24630
C         -7.45130       -4.97280        3.02400
C         -6.93440       -5.07690        1.70520
C         -7.46400       -5.74350        0.43170
C         -5.92690       -4.28530        1.40120
C         -5.80480       -3.17440        2.19710
C         -6.08230       -2.16730        1.40490
C         -6.71030       -0.80430        4.84830
C         -6.50160        0.48770        5.10750
N         -5.46840        1.02900        4.40910
C         -5.30370        2.45950        4.51320
C         -5.46720        3.17840        5.76660
C         -5.59830        2.54930        7.14800
C         -5.58330        4.57310        5.76010
C         -5.54670        5.28850        4.57170
C         -5.80800        6.76660        4.56740
C         -5.34680        4.61990        3.36580
C         -5.24270        3.22580        3.32400
C         -5.22280        2.55300        1.98980
H         -3.05230        1.05270       -1.04630
H         -2.75960        0.11330       -2.55800
H         -1.71710        1.49220       -2.12380
H          0.04460        0.05100       -2.61260
H         -0.74570       -1.49860       -2.58600
H          1.54900       -1.77620       -2.09610
H          0.49580       -2.30130       -0.79930
H          2.63150        1.32430       -0.52750
H          1.91640        1.08080        1.04260
H          0.29450        1.71310       -1.45640
H          0.88510        2.81570       -0.36290
H          0.17740        3.30640        1.56240
H         -0.28900        1.93820        2.55940
H         -1.55370        3.05260        1.80560
H         -1.07700       -2.07150        3.21460
H         -0.44690       -3.39620        2.20050
H         -2.03850       -2.73000        1.78590
H          1.11430       -0.39920        2.43680
H          1.37590       -2.14950        2.49010
H          2.36250       -2.40850        0.39190
H          3.13810       -1.02290        1.13200
H         -5.49900        0.03690        0.45840
H         -3.20020       -1.83440       -0.34040
H         -4.76000       -1.46090       -1.28650
H         -6.98130       -3.54610        6.02690
H         -8.03830       -4.89460        5.49950
H         -8.60070       -3.22670        5.16200
H         -8.25850       -5.64490        3.28260
H         -8.37650       -6.33660        0.51710
H         -6.67260       -6.22480       -0.19860
H         -7.76240       -4.88170       -0.25110
H         -5.54420       -4.25580        0.36480
H         -6.38100       -2.29820        0.33150
H         -4.96630       -2.22650        1.65420
H         -6.72180       -1.31160        1.75580
H         -7.50560       -1.36360        5.27790
H         -7.14870        1.04160        5.79010
H         -5.47480        1.45070        7.18650
H         -6.59780        2.80850        7.57010
H         -4.82990        2.97090        7.83000
H         -5.74690        5.09630        6.69480
H         -5.99330        7.15640        5.59150
H         -6.73210        6.94620        3.97510
H         -4.96840        7.32370        4.10970
H         -5.34430        5.18650        2.44730
H         -5.23600        3.27630        1.15240
H         -6.13940        1.92890        1.91370
H         -4.31480        1.93560        1.89300
