53

P         -1.34940       -0.06200        0.93060
N         -1.12410       -1.13250       -0.46630
C         -2.13810       -0.90100       -1.53040
C          0.12350       -1.50210       -1.13520
C          1.39060       -1.28980       -0.42340
N          2.05810        0.13490       -0.40020
C          1.35380        1.54660       -0.26160
C         -0.05090        1.68980       -0.87060
N         -1.33110        1.40680       -0.07980
C         -1.75640        2.52940        0.73380
N          0.11260       -0.31670        2.13250
C         -0.03270       -1.43680        3.00300
C          1.62680        0.01960        2.02850
C          2.77070        0.02470        0.86230
Cu        -3.40130       -0.02680        2.37310
Br        -2.23980        1.74770        3.69270
C         -4.51750       -1.48740        1.25810
C         -4.04640       -2.69240        1.16000
N         -5.04640        0.06860        3.53530
C         -5.33360        1.25020        4.14150
F         -4.66770        2.36880        3.83000
C         -6.45940        1.38580        4.93190
C         -7.17330        0.24830        5.27540
C         -6.85540       -0.97260        4.69110
C         -5.84960       -1.02370        3.72570
H         -3.08640       -0.40470       -1.29270
H         -2.38130       -1.88450       -2.00710
H         -1.83630       -0.04650       -2.16510
H          0.25880       -0.95010       -2.03840
H          0.01140       -2.60040       -1.32160
H          1.94810       -2.16940        0.02830
H          0.92560       -1.70430        0.47250
H          2.03660        2.37450        0.12450
H          1.00380        1.94950        0.73580
H          0.03280        1.04930       -1.72330
H         -0.09170        2.70660       -1.29810
H         -1.80360        3.43970        0.11240
H         -1.05140        2.66650        1.57440
H         -2.77710        2.32660        1.14060
H         -0.94080       -1.28950        3.56980
H          0.85380       -1.43660        3.68940
H         -0.01410       -2.34280        2.37720
H          0.94370        0.14310        1.33580
H          2.04130       -0.97170        2.10990
H          3.52070       -0.85540        0.81420
H          3.63110        0.74440        0.97830
H         -5.41170       -1.26360        0.67620
H         -3.22020       -2.82190        1.79970
H         -4.42140       -3.43230        0.44910
H         -6.76540        2.36150        5.28820
H         -7.98310        0.31300        5.98350
H         -7.39010       -1.86130        4.99140
H         -5.62860       -1.97420        3.26200
