61

C          0.90100       -0.64300       -0.00200
N         -0.37850       -1.06390       -0.33380
C         -1.05030       -2.29710       -0.71520
C         -0.66750       -3.54470       -0.13660
C          0.52590       -3.72090        0.75610
C         -1.49110       -4.66510       -0.30130
C         -2.68260       -4.58650       -1.01320
C         -3.64720       -5.72600       -1.03120
C         -3.02520       -3.41590       -1.66440
C         -2.24780       -2.26210       -1.54330
C         -2.79320       -1.05470       -2.32420
C         -1.17910       -0.03210       -0.01390
C         -0.46940        1.00540        0.40420
N          0.82630        0.67630        0.44080
C          1.73760        1.76530        0.71840
C          1.45180        2.77580        1.71320
C          0.35900        2.70000        2.76740
C          2.16440        3.98010        1.70070
C          3.13880        4.22630        0.73600
C          3.77330        5.57990        0.63580
C          3.45940        3.23260       -0.19450
C          2.76770        2.01980       -0.21900
C          3.02340        1.06230       -1.34640
Cu         2.65840       -1.88140       -0.01350
Br         2.40100       -2.22310       -2.56790
C          2.87220       -1.59790        2.10700
C          2.06080       -0.92120        2.92280
C          4.41590       -3.11990       -0.02500
N          4.85030       -3.78970       -1.11050
C          5.95370       -4.42750       -0.68230
C          6.14130       -4.13570        0.64860
O          5.18490       -3.32120        1.02140
H          1.44540       -3.52570        0.19540
H          0.63120       -4.76740        1.11570
H          0.42830       -3.06940        1.64700
H         -1.23470       -5.59880        0.18270
H         -3.30430       -6.55530       -0.37920
H         -3.81730       -6.08910       -2.06270
H         -4.60780       -5.34980       -0.61050
H         -3.95140       -3.39350       -2.22780
H         -3.67530       -1.33000       -2.94390
H         -2.02980       -0.65720       -3.02180
H         -3.21450       -0.22640       -1.73480
H         -2.24870       -0.00290       -0.01750
H         -0.90230        1.96630        0.64450
H         -0.19520        1.74480        2.79960
H         -0.36840        3.52540        2.59690
H          0.79790        2.84330        3.77830
H          1.91150        4.75450        2.41730
H          3.38460        6.27230        1.40820
H          3.50820        6.00910       -0.35750
H          4.87580        5.50870        0.72460
H          4.20430        3.44540       -0.95400
H          3.80910        1.41960       -2.03520
H          2.08250        0.95020       -1.93210
H          3.33520        0.08270       -0.93920
H          3.73250       -2.06610        2.56880
H          1.16170       -0.43180        2.59490
H          2.30140       -0.86820        3.98070
H          6.57600       -5.06330       -1.29740
H          6.93100       -4.50290        1.29040
