69

P         -1.35000        0.00100        0.79800
N         -1.11660       -1.07920       -0.63520
C         -2.24670       -0.94490       -1.57730
C          0.13000       -1.29160       -1.41070
C          1.41180       -1.13670       -0.64570
N          1.57580        0.17960        0.01150
C          1.23890        1.52880       -0.48960
C         -0.20140        1.74330       -1.06120
N         -1.35720        1.52000       -0.14650
C         -1.62880        2.69010        0.67120
N         -0.10830       -0.76880        1.85180
C         -0.68650       -1.60540        2.90170
C          0.95000        0.15860        2.32750
C          2.12320        0.10600        1.35790
Cu        -3.32260        0.00260        2.26790
Br        -2.23480        1.84650        3.72560
C         -4.22550       -1.52800        1.05780
C         -5.22080       -1.87540        0.22680
C         -5.04660        0.00400        3.55250
N         -4.95270        0.10670        4.92620
C         -3.78900        0.09260        5.84540
C         -3.84350        1.31490        6.78370
C         -3.75890       -1.20430        6.66370
C         -6.20010        0.04630        5.41860
C         -7.07030       -0.06900        4.39740
N         -6.38760       -0.11170        3.23710
C         -7.16630       -0.02830        2.00030
C         -6.47340        0.83770        0.92080
C         -7.82970       -1.38810        1.71360
H         -3.18910       -0.66580       -1.07820
H         -2.40990       -1.89680       -2.12350
H         -2.06630       -0.14440       -2.32760
H          0.18700       -0.70340       -2.34280
H          0.09780       -2.34120       -1.78710
H          2.27860       -1.35450       -1.30440
H          1.38480       -1.95190        0.11460
H          1.97890        1.80940       -1.27150
H          1.35240        2.27120        0.32790
H         -0.33960        1.20710       -2.00110
H         -0.22290        2.79290       -1.43500
H         -1.68680        3.60560        0.04990
H         -0.82090        2.84810        1.44730
H         -2.63340        2.58430        1.12830
H         -1.49650       -1.07840        3.43940
H          0.09070       -1.90910        3.63870
H         -1.06390       -2.54290        2.44710
H          0.56510        1.19340        2.40110
H          1.37260       -0.12170        3.31800
H          2.68600       -0.85080        1.48860
H          2.87640        0.90520        1.54210
H         -3.54790       -2.37150        1.15880
H         -6.04300       -1.29160       -0.11370
H         -5.22180       -2.88750       -0.17400
H         -2.85250        0.04630        5.29440
H         -4.75070        1.28040        7.42730
H         -3.87720        2.25410        6.19720
H         -2.95800        1.33070        7.45070
H         -4.66560       -1.32750        7.28910
H         -2.86850       -1.20790        7.32940
H         -3.67500       -2.07580        5.97760
H         -6.47610        0.07870        6.46590
H         -8.14890       -0.10160        4.49370
H         -8.05570        0.62270        2.17120
H         -5.42130        0.59820        0.71950
H         -6.43400        1.89410        1.25720
H         -7.05650        0.80780       -0.02650
H         -7.12600       -2.23380        1.82040
H         -8.34040       -1.40020        0.72930
H         -8.61310       -1.56790        2.48670
