91

C          0.90100       -0.64300       -0.00200
N         -0.36490       -1.20080       -0.18100
C         -0.89860       -2.57090       -0.25760
C         -0.28560       -3.62110        0.49570
C          0.95170       -3.44620        1.31160
C         -0.90250       -4.86860        0.62660
C         -2.12620       -5.13900        0.04170
C         -2.80070       -6.45710        0.29590
C         -2.73530       -4.16500       -0.74000
C         -2.16390       -2.88660       -0.91060
C         -2.97820       -1.94320       -1.79340
C         -1.22950       -0.18980        0.02120
C         -0.57440        0.92860        0.32720
N          0.74200        0.69100        0.38630
C          1.57330        1.84120        0.71280
C          1.21810        2.76960        1.76770
C          0.10540        2.59810        2.78980
C          1.90600        3.98220        1.88470
C          2.91390        4.32800        0.99480
C          3.51840        5.70400        1.06530
C          3.29580        3.41550       -0.00310
C          2.62490        2.18250       -0.15270
C          2.92500        1.29520       -1.32230
Cu         2.65840       -1.88140       -0.01350
Br         2.06900       -2.69570       -2.40050
C          3.14770       -1.20550        1.96800
C          2.44570       -0.42810        2.79430
C          4.41590       -3.11990       -0.02500
N          5.28240       -3.30960       -1.09610
C          5.34380       -2.55870       -2.37570
C          6.66740       -1.75690       -2.49610
C          5.18950       -3.44550       -3.62140
C          6.19880       -4.20800       -0.65840
C          5.93500       -4.54650        0.63010
C          6.73280       -5.48310        1.32890
C          7.85560       -6.02350        0.69740
C          8.15240       -5.65560       -0.61880
C          7.32530       -4.76050       -1.31320
N          4.89060       -3.83680        1.11140
C          4.46620       -4.02120        2.56310
C          5.55570       -3.85670        3.68700
C          6.88890       -3.45680        3.41500
C          7.89720       -3.52730        4.38610
C          7.60960       -3.94000        5.68440
C          6.29970       -4.26400        6.02360
C          5.28280       -4.22720        5.05360
H          0.93120       -2.46880        1.81450
H          1.83700       -3.67680        0.69520
H          0.99010       -4.17070        2.15140
H         -0.43870       -5.63580        1.23470
H         -2.19960       -7.09440        0.98120
H         -2.96060       -7.00630       -0.65210
H         -3.77970       -6.27640        0.79110
H         -3.69570       -4.40210       -1.18640
H         -3.85080       -2.45920       -2.25090
H         -2.35750       -1.56290       -2.62830
H         -3.47370       -1.11100       -1.27250
H         -2.29360       -0.22680        0.05780
H         -1.06260        1.87490        0.54000
H         -0.45550        1.65050        2.72980
H         -0.61710        3.44090        2.68780
H          0.52550        2.64830        3.81810
H          1.61110        4.69090        2.65450
H          3.06640        6.31150        1.88280
H          3.29010        6.23280        0.11440
H          4.61450        5.66980        1.21600
H          4.06880        3.69830       -0.70450
H          3.72340        1.70250       -1.96970
H          1.99550        1.21450       -1.93060
H          3.22000        0.28610       -0.97260
H          4.10980       -1.51690        2.34450
H          1.46400       -0.05710        2.57240
H          2.86940       -0.17420        3.76250
H          4.54700       -1.79530       -2.37340
H          7.56510       -2.39880       -2.57750
H          6.81610       -1.08660       -1.62520
H          6.65910       -1.13450       -3.41710
H          6.03500       -4.14400       -3.75860
H          5.16320       -2.79580       -4.52440
H          4.25630       -4.03530       -3.58650
H          6.53820       -5.79090        2.34990
H          8.49670       -6.71340        1.23440
H          9.02650       -6.07070       -1.10090
H          7.58790       -4.52240       -2.32340
H          4.12290       -5.07700        2.65620
H          3.53870       -3.46600        2.82730
H          7.17320       -3.14960        2.42690
H          8.91780       -3.27910        4.12640
H          8.40650       -4.00790        6.42230
H          6.09470       -4.57130        7.04760
H          4.28970       -4.53670        5.36050
