43

C          1.02400       -0.65300       -0.05500
N          1.06080        0.61300        0.14750
C          2.26570        1.38900        0.34420
C         -0.26560        1.17760        0.23920
C         -1.19590       -0.00250       -0.08980
N         -0.30050       -1.12950       -0.09580
C         -0.71770       -2.50440       -0.23060
Cu         2.78020       -1.86970       -0.29550
Br         2.10300       -3.25810        1.78350
C          3.34240       -0.71720       -2.02120
C          2.54160        0.19970       -2.58610
N          4.49560       -3.05820       -0.53040
C          5.47800       -2.71100       -1.42390
C          6.60820       -3.45280       -1.68630
C          6.80500       -4.68770       -1.09350
N          7.93560       -5.51630       -1.48300
C          9.05950       -5.02040       -2.28720
C          8.01860       -6.92860       -1.16160
C          5.83350       -5.06540       -0.13200
C          4.73160       -4.21990        0.16980
H          3.17370        0.75220        0.29240
H          2.23650        1.85980        1.35060
H          2.32900        2.19020       -0.42070
H         -0.41900        2.01850       -0.47040
H         -0.42180        1.52100        1.28540
H         -1.62440        0.09000       -1.11320
H         -2.00270       -0.09480        0.66740
H         -1.82390       -2.56150       -0.32220
H         -0.43780       -3.06930        0.67920
H         -0.25130       -2.96520       -1.12380
H          4.20880       -0.74160       -2.62680
H          1.56060        0.45760       -2.23510
H          2.87980        0.74420       -3.46710
H          5.55010       -1.79990       -1.90580
H          7.28180       -3.01090       -2.39590
H          9.05760       -3.94580       -2.50850
H          9.08820       -5.55980       -3.25940
H         10.01250       -5.20150       -1.74930
H          7.14950       -7.32250       -0.61280
H          8.93540       -7.12810       -0.56630
H          8.07900       -7.51200       -2.10760
H          5.88330       -6.00290        0.39510
H          4.03370       -4.61420        0.87450
