35

C          1.02400       -0.65300       -0.05500
N          0.64080        0.28640       -0.84600
C          1.33650        0.76890       -2.01390
C         -0.61890        0.85260       -0.41130
C         -1.12860       -0.18370        0.60290
N          0.07770       -0.86420        0.96840
C          0.32610       -1.45330        2.26050
Cu         2.78020       -1.86970       -0.29550
Br         4.26040        0.25470       -0.23460
C          1.55150       -3.63330       -0.34600
C          2.00980       -4.87720       -0.49890
N          4.49560       -3.05820       -0.53040
C          5.29720       -3.25420        0.55100
C          6.46960       -4.00370        0.43230
C          6.82990       -4.51020       -0.81710
C          6.00970       -4.27610       -1.92350
C          4.82730       -3.54820       -1.75710
H          1.48610       -0.05400       -2.74650
H          2.30060        1.22900       -1.74900
H          0.73850        1.57240       -2.51660
H         -1.35970        0.99820       -1.21230
H         -0.39200        1.81770        0.10560
H         -1.73400       -0.92350        0.02850
H         -1.73940        0.21290        1.44080
H          0.11200       -0.69230        3.04320
H          1.38720       -1.76210        2.35390
H         -0.34250       -2.32310        2.41740
H          0.48170       -3.49340       -0.22890
H          3.05920       -5.09980       -0.60800
H          1.31310       -5.70900       -0.50810
H          5.00910       -2.84850        1.51150
H          7.09530       -4.18020        1.29760
H          7.74540       -5.07690       -0.92800
H          6.29190       -4.64740       -2.89990
H          4.19110       -3.34440       -2.60780
