69

P          1.27500        0.00000        0.00000
N          0.28450        1.51870       -0.02740
C          0.66020        2.54730        1.02120
C          0.01820        3.92390        0.77350
C          0.41000        2.15810        2.49500
C         -1.15590        1.34860       -0.21550
C         -1.52830       -0.10680       -0.10940
C         -3.06690       -0.22490       -0.19200
C         -0.90340       -0.87090       -1.30190
N          0.57990       -0.74350       -1.48620
C          1.18420       -2.10060       -1.74540
C          0.38980       -3.11690       -2.62770
C          2.52860       -1.93870       -2.48000
N          0.46190       -0.47250        1.51350
C          1.07800       -1.52900        2.35160
C          2.47190       -1.10760        2.85240
C          0.23780       -1.79430        3.62780
C         -0.99910       -0.68930        1.24530
Cu         3.73500        0.00030       -0.00050
Br         3.73540       -2.58040        0.21910
C          3.73470        2.14260       -0.18270
C          3.27260        2.69350       -1.30360
N          5.83500        0.00060       -0.00090
C          6.67240        1.03150        0.42060
C          6.23040        2.17440        1.27220
C          8.06670        0.94520        0.26040
C          8.64360       -0.18650       -0.28910
C          7.83300       -1.23380       -0.66660
C          6.44120       -1.12420       -0.51370
H          1.72810        2.74330        0.96360
H         -1.07470        3.92350        0.95560
H          0.23060        4.27630       -0.25440
H          0.45220        4.66410        1.48490
H         -0.64940        1.89480        2.68260
H          0.68300        2.99720        3.17020
H          1.07990        1.35060        2.82050
H         -1.43650        1.76160       -1.21110
H         -1.73380        1.90690        0.54710
H         -3.43940        0.18160       -1.15950
H         -3.54780        0.35830        0.62360
H         -3.39190       -1.28170       -0.10640
H         -1.37920       -0.57030       -2.26100
H         -1.21840       -1.90430       -1.07770
H          1.28740       -2.61240       -0.76770
H          0.27810       -2.75490       -3.67040
H         -0.61740       -3.41590       -2.26520
H          0.93550       -4.08080       -2.64420
H          2.37380       -1.59160       -3.51830
H          3.04750       -2.92250       -2.51730
H          3.18250       -1.19690       -1.98560
H          1.14800       -2.46560        1.75690
H          2.41980       -0.26220        3.56550
H          3.13300       -0.78060        2.04090
H          2.95140       -1.96500        3.37540
H          0.15880       -0.86480        4.23660
H          0.71190       -2.58170        4.24920
H         -0.79180       -2.13970        3.40990
H         -1.56490       -0.21520        2.07710
H         -1.24810       -1.77240        1.24900
H          3.95270        2.83790        0.60940
H          2.93930        2.07200       -2.12560
H          3.19280        3.77490       -1.38150
H          5.31200        1.90650        1.82660
H          6.23970        3.13990        0.72140
H          6.93610        2.28570        2.12700
H          8.72060        1.73910        0.61200
H          9.71570       -0.25090       -0.40330
H          8.26270       -2.12820       -1.09560
H          5.88780       -1.95290       -0.88970
