62

P         -1.24700       -0.24270        0.94380
N         -1.03330       -1.35300       -0.45080
C         -2.26600       -1.31380       -1.25940
C          0.13070       -1.42200       -1.35230
C          1.45190       -1.25820       -0.66880
N          1.65890        0.04680       -0.00440
C          1.23070        1.42210       -0.37500
C         -0.20130        1.59590       -0.92470
N         -1.32340        1.29540        0.00710
C         -1.59810        2.43660        0.89240
N          0.06200       -0.84650        2.03240
C         -0.11150       -2.15180        2.66930
C          1.28830       -0.05410        2.35950
C          2.35170       -0.08170        1.26240
Cu        -3.20820        0.12660        2.37540
Br        -4.60390        0.88680        0.44470
C         -2.16130       -0.34250        4.10370
C         -1.18130        0.46340        4.51310
N         -4.85920        0.12660        3.58360
C         -5.37410       -1.08530        3.94900
C         -4.80070       -2.36720        3.40930
C         -6.54730       -1.16560        4.71630
C         -7.16720        0.00790        5.13950
C         -8.41820       -0.04690        5.97460
C         -6.62860        1.23930        4.75750
C         -5.46900        1.28270        3.95000
C         -4.86210        2.59590        3.58610
H         -3.16610       -1.42070       -0.61880
H         -2.28890       -2.15210       -1.98620
H         -2.34220       -0.35810       -1.82700
H          0.06140       -0.79920       -2.25540
H          0.13090       -2.45360       -1.77080
H          2.28150       -1.47840       -1.37040
H          1.45790       -2.07700        0.08970
H          1.95680        1.84500       -1.09880
H          1.28600        2.08100        0.51980
H         -0.35420        1.11070       -1.89050
H         -0.27710        2.66070       -1.23890
H         -1.78150        3.35250        0.28630
H         -0.76630        2.61490        1.59960
H         -2.52270        2.27320        1.47240
H         -1.18470       -2.35350        2.84340
H          0.39540       -2.16260        3.65940
H          0.30590       -2.95480        2.03540
H          0.99760        0.99660        2.53310
H          1.79350       -0.41480        3.28150
H          2.94960       -1.02470        1.28520
H          3.11450        0.72320        1.39600
H         -2.44470       -1.19380        4.71090
H         -0.91340        1.33330        3.92290
H         -0.64320        0.25900        5.43270
H         -3.92110       -2.17790        2.75580
H         -5.56750       -2.88030        2.78510
H         -4.51160       -3.04610        4.23720
H         -6.96880       -2.12980        4.96610
H         -8.74230       -1.09290        6.16690
H         -9.24750        0.48220        5.46000
H         -8.23210        0.44190        6.95630
H         -7.10230        2.15550        5.08720
H         -5.42410        3.44360        4.02870
H         -4.84400        2.72610        2.49100
H         -3.82180        2.62560        3.97710
