57

P          1.27500        0.00000        0.00000
N          0.15200        1.47620       -0.17790
C          0.24780        2.71500        0.71310
C         -0.16570        2.50070        2.19350
C          1.50890        3.53560        0.58560
C         -1.27750        1.24190       -0.33250
C         -1.58560       -0.13610        0.09860
C         -3.13000       -0.24640        0.24780
C         -1.09490       -0.97610       -1.06860
N          0.39850       -1.16990       -1.16430
C          0.50830       -2.68440       -0.95390
C         -0.21430       -3.50740       -2.09110
C          1.88540       -3.29420       -0.83000
N          0.61200       -0.36200        1.61750
C          1.20850       -1.56080        2.29780
C          2.72350       -1.47670        2.50620
C          0.57770       -1.81660        3.68750
C         -0.89080       -0.55830        1.46690
Cu         3.73500        0.00030       -0.00050
Br         4.08170        1.56650        1.89870
C          3.84370       -1.29300       -1.59680
C          3.23470       -1.01250       -2.74870
C          5.88500        0.00060       -0.00090
O          7.10310        0.00080       -0.00110
H         -0.48660        3.46770        0.33080
H          0.51880        1.83020        2.74220
H         -1.20580        2.12060        2.27650
H         -0.19890        3.47120        2.73240
H          2.34330        2.98770        0.94690
H          1.41440        4.45270        1.21600
H          1.68510        3.84190       -0.46110
H         -1.57300        1.46280       -1.38190
H         -1.93100        1.94050        0.23580
H         -3.63600        0.02390       -0.71270
H         -3.50530        0.43470        1.03440
H         -3.43570       -1.27900        0.51650
H         -1.49490       -0.63890       -2.05160
H         -1.67630       -1.89740       -0.86710
H         -0.01560       -2.95970       -0.01430
H          0.25920       -3.32380       -3.07050
H         -1.29880       -3.31890       -2.23880
H         -0.18280       -4.59240       -1.85550
H          2.38540       -3.31040       -1.81030
H          1.77030       -4.37140       -0.54340
H          2.47740       -2.82560       -0.03420
H          1.02470       -2.47220        1.71130
H          2.97850       -0.63780        3.18130
H          3.26230       -1.38710        1.55340
H          3.09010       -2.41830        2.97080
H          0.77400       -0.96600        4.37210
H          1.00460       -2.74360        4.12990
H         -0.51590       -1.98490        3.64260
H         -1.38050       -0.04470        2.31740
H         -1.17150       -1.62520        1.58120
H          4.42000       -2.20790       -1.49350
H          2.66060       -0.10020       -2.85660
H          3.30100       -1.70600       -3.58170
