43

C          0.90100       -0.64300       -0.00200
N          0.32040       -0.03950       -1.07330
C          0.66840       -0.11530       -2.48400
C         -0.76590        0.61020       -0.60670
C         -0.86680        0.37320        0.74400
N          0.14790       -0.43330        1.10760
C          0.35520       -0.94460        2.45690
Cu         2.65840       -1.88140       -0.01350
Br         4.14130        0.22000        0.29140
C          1.42750       -3.62590       -0.26660
C          0.09600       -3.67430       -0.31760
N          4.37500       -3.09110       -0.02470
C          4.58260       -4.42020        0.10520
C          3.76420       -5.71320        0.55110
C          2.64140       -6.46430        0.00910
C          2.09500       -7.58560        0.66170
C          2.67930       -8.08680        1.81130
C          3.81720       -7.47560        2.31230
C          4.33570       -6.32380        1.70540
N          5.96470       -4.71230        0.01310
C          6.68870       -3.55040       -0.34120
C          5.67280       -2.44160       -0.09880
H          1.52180       -0.80530       -2.65440
H          0.88700        0.89750       -2.87720
H         -0.21170       -0.51720       -3.03530
H         -1.45120        1.18730       -1.20660
H         -1.64490        0.74200        1.40080
H         -0.43860       -0.55900        3.13790
H          1.33940       -0.61860        2.84910
H          0.28980       -2.05230        2.45130
H          1.99960       -4.39210       -0.46090
H         -0.51390       -2.79010       -0.20010
H         -0.39620       -4.61380       -0.54860
H          2.12190       -6.25820       -0.91670
H          1.21620       -8.08480        0.26400
H          2.26580       -8.96400        2.30050
H          4.30020       -7.89320        3.18710
H          5.21730       -5.89800        2.16430
H          6.36450       -5.66390        0.00470
H          6.93400       -3.65380       -1.42140
H          7.61030       -3.41610        0.26310
H          5.74790       -1.71040       -0.92940
H          5.86030       -1.96400        0.88670
