70

C          1.02400       -0.65300       -0.05500
N          1.02970        0.68300       -0.23690
C          2.12950        1.71830       -0.47500
C          1.90860        3.03580       -1.11890
C          0.69230        3.59180       -1.80020
C          2.95880        4.01630       -1.16950
C          4.22030        3.80020       -0.65350
C          5.33780        4.80500       -0.65780
C          4.47050        2.59990       -0.08560
C          3.49350        1.60720        0.01290
C          4.01880        0.51570        0.76550
C         -0.32460        1.11780        0.03930
C         -1.18850       -0.12610        0.07690
N         -0.28200       -1.21770        0.30870
C         -0.71950       -2.59550        0.71150
C          0.05740       -3.78080        0.45240
C          1.23360       -3.81280       -0.38410
C         -0.30410       -5.05700        0.89110
C         -1.46800       -5.27050        1.57790
C         -1.83590       -6.66370        2.00620
C         -2.29700       -4.18540        1.83140
C         -1.96250       -2.86930        1.41830
C         -2.99740       -1.84380        1.79300
Cu         2.78020       -1.86970       -0.29550
Br         2.31470       -2.03910       -2.83770
C          3.16660       -1.72910        1.81480
C          4.12990       -2.30480        2.54410
N          4.49560       -3.05820       -0.53040
C          5.71770       -2.64920       -0.06990
C          6.88410       -3.37070       -0.38330
C          8.24430       -2.86670       -0.00250
C          6.77290       -4.55490       -1.11600
C          5.52850       -4.96150       -1.58000
C          4.40980       -4.17230       -1.31730
H         -0.14290        2.94260       -2.03070
H          0.99060        3.92630       -2.81820
H          0.33810        4.49250       -1.24580
H          2.78570        4.98580       -1.62570
H          5.05200        5.75710       -1.14170
H          6.22150        4.37540       -1.18040
H          5.64290        5.01490        0.39370
H          5.46930        2.46460        0.32650
H          5.07390        0.55680        1.11830
H          4.00390       -0.31130        0.05960
H          3.41450        0.57930        1.68780
H         -0.83460        1.77070       -0.65690
H         -0.30600        1.61760        1.03560
H         -1.66210       -0.32120       -0.91740
H         -1.94750        0.10770        0.82380
H          1.13310       -2.91380       -0.92980
H          1.14850       -4.59660       -1.17010
H          2.14060       -3.96400        0.23080
H          0.32860       -5.90980        0.65370
H         -1.05850       -7.40340        1.70670
H         -2.78870       -6.96400        1.52430
H         -1.94100       -6.70700        3.10880
H         -3.22050       -4.38550        2.35950
H         -3.85490       -2.27520        2.35150
H         -3.44370       -1.41640        0.87050
H         -2.55240       -1.08360        2.46520
H          2.42300       -1.17200        2.37880
H          4.88820       -2.95420        2.15290
H          4.14690       -2.14870        3.61730
H          5.80780       -1.71620        0.46490
H          8.18730       -1.88810        0.51890
H          8.84080       -2.71860       -0.93070
H          8.76420       -3.60090        0.64440
H          7.65090       -5.14180       -1.35710
H          5.43290       -5.86690       -2.16580
H          3.46020       -4.48590       -1.71830
