60

C          2.32700        0.03400        0.00000
N          1.51210        1.12770       -0.07170
C          1.89510        2.53270       -0.35420
C          2.61340        2.66490       -1.71920
C          1.74330        2.25750       -2.92570
C          2.48690        2.49060       -4.24560
C          0.25180        0.63390       -0.03960
C          0.30690       -0.73600        0.03690
C         -0.85760       -1.51260        0.10100
C         -2.09420       -0.85120        0.06110
C         -2.15340        0.55340       -0.05620
C         -0.96880        1.31350       -0.12300
N          1.60380       -1.12310        0.04200
C          2.08940       -2.50980        0.20100
C          2.92820       -2.68390        1.46250
C          2.41360       -2.39190        2.74810
C          3.20850       -2.58730        3.88920
C          4.51200       -3.07730        3.76680
C          5.02190       -3.38110        2.50270
C          4.23720       -3.18650        1.36160
Cu         4.47690        0.05800        0.00140
Br         4.49520       -1.45580       -2.10000
C          4.46170        1.31470        1.74590
C          3.36540        1.71130        2.40410
N          6.57670        0.08150        0.00280
C          7.05390        0.13710        1.42020
C          7.20860       -1.03780       -0.72550
C          7.14330        1.36210       -0.49120
H          2.55360        2.94100        0.42200
H          1.00120        3.18560       -0.38710
H          3.54200        2.05660       -1.71120
H          2.89610        3.73280       -1.84660
H          0.80990        2.86160       -2.94250
H          1.46890        1.18260       -2.85630
H          2.74350        3.56590       -4.36310
H          1.84710        2.19270       -5.10430
H          3.42180        1.89180       -4.28010
H         -0.82950       -2.58640        0.18390
H         -3.00900       -1.43030        0.11070
H         -3.11470        1.04320       -0.09880
H         -1.03730        2.38850       -0.19420
H          2.64890       -2.82160       -0.68690
H          1.24160       -3.21310        0.29680
H          1.40620       -2.02050        2.86820
H          2.81640       -2.36350        4.87540
H          5.12350       -3.23060        4.64660
H          6.02710       -3.77180        2.40730
H          4.65200       -3.43920        0.39530
H          5.33240        1.67780        2.24060
H          2.36620        1.42150        2.13890
H          3.45730        2.33500        3.28800
H          6.38300       -0.49240        2.04740
H          7.21140        1.13650        1.88080
H          8.05950       -0.32160        1.53320
H          6.86000       -1.99390       -0.26600
H          8.31500       -1.02940       -0.60370
H          7.02320       -1.03160       -1.80980
H          6.67510        2.25650       -0.03520
H          7.04850        1.42500       -1.59580
H          8.25380        1.40050       -0.31130
