47

C          1.02400       -0.65300       -0.05500
N          1.00550        0.62540       -0.21020
C          2.18200        1.44660       -0.48190
C          1.97850        2.25030       -1.77410
C          2.43200        2.40790        0.69080
C         -0.32710        1.16130       -0.01330
C         -1.21140       -0.08150        0.04370
N         -0.27000       -1.15650        0.21250
C         -0.61200       -2.53370        0.51470
C         -1.34170       -2.59070        1.86370
C         -1.49190       -3.13680       -0.58630
Cu         2.78020       -1.86970       -0.29550
Br         3.28770       -1.63700        2.23360
C          2.35890       -2.06290       -2.39490
C          2.35850       -3.25060       -2.99290
O          4.45470       -3.02990       -0.52480
C          4.76200       -3.80820        0.59280
C          3.52810       -4.72350        0.77190
C          5.94670       -4.71110        0.24500
H          3.07830        0.80270       -0.59900
H          1.11580        2.94840       -1.68870
H          1.79650        1.56510       -2.62640
H          2.87880        2.86270       -1.99270
H          1.57030        3.09580        0.84370
H          3.33130        3.03070        0.49500
H          2.59880        1.83520        1.62750
H         -0.67220        1.83140       -0.82460
H         -0.33790        1.68970        0.96280
H         -1.73570       -0.24280       -0.92650
H         -1.95660        0.01730        0.86600
H          0.31700       -3.13860        0.58900
H         -2.30210       -2.03260        1.82310
H         -0.70950       -2.14930        2.66110
H         -1.58060       -3.63910        2.13820
H         -2.44180       -2.57080       -0.69240
H         -1.74380       -4.19230       -0.33960
H         -0.95230       -3.12210       -1.55670
H          2.06080       -1.18110       -2.95290
H          2.58290       -4.14800       -2.42920
H          2.08720       -3.32750       -4.04170
H          5.05760       -3.24930        1.48830
H          3.32470       -5.27340       -0.18110
H          2.61210       -4.13450        0.98160
H          3.66390       -5.47770        1.57210
H          5.75140       -5.27360       -0.69680
H          6.11800       -5.44880        1.05940
H          6.86320       -4.10330        0.11380
