42

C          1.02400       -0.65300       -0.05500
N          1.05920        0.61080        0.11460
C          2.25700        1.41650        0.22350
C         -0.25820        1.20370        0.14510
C         -1.19990        0.02310       -0.05900
N         -0.31710       -1.11640       -0.15350
C         -0.80780       -2.46090       -0.30410
C         -2.20120       -2.70930       -0.31130
C         -2.70720       -4.00380       -0.44460
C         -1.83600       -5.08230       -0.57210
C         -0.45600       -4.86440       -0.56160
C          0.06030       -3.56380       -0.42210
Cu         2.78020       -1.86970       -0.29550
Br         2.59390       -1.63030       -2.86760
C          2.93490       -2.06850        1.83970
C          1.85360       -1.93340        2.61230
N          4.49560       -3.05820       -0.53040
C          5.13610       -3.66030        0.53800
C          6.30360       -4.41650        0.40700
Cl         7.05020       -5.14490        1.82260
C          6.86720       -4.59200       -0.83890
C          6.24040       -4.03040       -1.93620
C          5.06440       -3.28650       -1.76860
H          3.14460        0.79150        0.43800
H          2.12870        2.15160        1.05020
H          2.40890        1.98760       -0.71840
H         -0.38630        1.95630       -0.66440
H         -0.42960        1.67470        1.13840
H         -1.77070        0.12310       -1.00900
H         -1.89090       -0.07940        0.80590
H         -2.91990       -1.90840       -0.21170
H         -3.77870       -4.16800       -0.44460
H         -2.23550       -6.08410       -0.67610
H          0.21240       -5.70910       -0.66180
H          1.12780       -3.43370       -0.41570
H          3.83110       -2.23520        2.40250
H          0.87010       -1.77110        2.19780
H          1.93670       -2.02260        3.69080
H          4.79130       -3.64710        1.52780
H          7.77770       -5.16610       -0.95510
H          6.67040       -4.16340       -2.92030
H          4.69010       -2.89040       -2.67590
