55

C          2.32700        0.03400        0.00000
N          1.47460        1.12160       -0.05930
C          1.74860        2.57190       -0.18400
C          2.58740        3.10340        0.96500
C          2.36600        2.92000       -1.54720
C          0.21910        0.58800       -0.06210
C          0.31170       -0.77560       -0.03070
C         -0.81900       -1.60240       -0.01780
C         -2.09000       -0.99500       -0.04610
C         -2.19610        0.40700       -0.10060
C         -1.03890        1.21520       -0.10590
N          1.60780       -1.13740       -0.02740
C          2.06480       -2.53660       -0.01410
C          1.66250       -3.29880       -1.27620
C          1.44540       -2.63760       -2.50250
C          1.11440       -3.35570       -3.65440
C          0.96970       -4.74130       -3.59980
C          1.15190       -5.41290       -2.38860
C          1.50280       -4.69910       -1.23390
Cu         4.47690        0.05800        0.00140
Br         4.32120       -1.08750       -2.20370
C          4.44560        0.37480        2.04060
C          4.32680       -0.75450        2.74900
N          6.57670        0.08150        0.00280
C          7.28690       -0.29480       -1.11100
C          8.68450       -0.36250       -1.09980
C          9.38340        0.04060        0.02910
C          8.67900        0.48060        1.13870
C          7.28300        0.46100        1.12090
H          0.79350        3.13160       -0.15700
H          3.60550        2.67320        0.92360
H          2.09710        2.84970        1.92600
H          2.66350        4.20890        0.88360
H          3.38220        2.49230       -1.66520
H          2.42870        4.02760       -1.65510
H          1.71590        2.55100       -2.37180
H         -0.73940       -2.67710        0.01840
H         -2.97460       -1.60250       -0.04200
H         -3.16650        0.86970       -0.14780
H         -1.15610        2.28390       -0.15820
H          1.60070       -3.02740        0.87260
H          3.16150       -2.61050        0.12000
H          1.54130       -1.56310       -2.57660
H          0.97110       -2.83140       -4.59020
H          0.71550       -5.29310       -4.49620
H          1.02530       -6.48800       -2.34850
H          1.63960       -5.23940       -0.30520
H          4.77270        1.26560        2.56080
H          4.19080       -1.70020        2.22630
H          4.46280       -0.77480        3.82530
H          6.81220       -0.62400       -2.00920
H          9.22180       -0.72920       -1.96520
H         10.46530        0.01590        0.04390
H          9.20860        0.83010        2.01640
H          6.81050        0.81890        2.00980
