70

C          1.02400       -0.65300       -0.05500
N          1.01290        0.69970       -0.02170
C          2.08790        1.74340        0.06240
C          1.90260        3.18500       -0.17710
C          0.61220        3.96580       -0.40880
C          3.02990        4.05480       -0.20100
C          4.31430        3.60090        0.08600
C          5.55500        4.41910       -0.01030
C          4.48010        2.31670        0.47700
C          3.42210        1.43380        0.46820
C          3.76770        0.18190        0.98700
C         -0.35570        1.12720       -0.14390
C         -1.18410       -0.07750       -0.44830
N         -0.33980       -1.19140       -0.11840
C         -0.85490       -2.53030        0.21730
C         -0.16680       -3.72970       -0.15330
C          0.94150       -3.74990       -1.11940
C         -0.57370       -4.98870        0.29820
C         -1.69030       -5.12100        1.09940
C         -2.09300       -6.47110        1.63900
C         -2.44650       -4.01360        1.40590
C         -2.07940       -2.72640        0.97620
C         -3.04910       -1.65250        1.40880
Cu         2.78020       -1.86970       -0.29550
Br         2.88190       -2.22940        2.26740
C          2.69570       -1.57110       -2.42300
C          3.69560       -0.86840       -2.96630
N          4.49560       -3.05820       -0.53040
C          5.41620       -3.58230        0.43140
C          5.34190       -3.57290        1.93760
C          6.58260       -4.29160        0.04450
C          6.87830       -4.52570       -1.26420
C          5.98720       -4.10660       -2.20930
C          4.82620       -3.42310       -1.83510
H         -0.32290        3.57420        0.01280
H          0.51620        4.28320       -1.46610
H          0.65430        4.89780        0.20510
H          2.91030        5.10630       -0.43430
H          5.34890        5.45730       -0.32250
H          6.19740        3.92890       -0.77750
H          6.10460        4.39920        0.95730
H          5.47320        1.98100        0.77320
H          4.73070        0.07380        1.51320
H          3.89840       -0.37780        0.06890
H          2.96920        0.11560        1.74780
H         -0.50510        1.79260       -1.01940
H         -0.65000        1.57720        0.83080
H         -1.41430       -0.15690       -1.53490
H         -2.11040        0.10080        0.08680
H          0.92780       -2.77140       -1.54330
H          0.70050       -4.42260       -1.97360
H          1.90060       -4.05580       -0.65950
H         -0.02070       -5.87400        0.00530
H         -1.38840       -7.26860        1.32670
H         -3.11120       -6.72860        1.28430
H         -2.09470       -6.41340        2.74860
H         -3.34040       -4.15880        2.00330
H         -3.87830       -2.03850        2.03920
H         -3.58090       -1.25250        0.51840
H         -2.53330       -0.87560        2.00730
H          1.85410       -1.78160       -3.07500
H          4.53000       -0.56210       -2.34290
H          3.69030       -0.60240       -4.01710
H          5.41230       -2.54590        2.33960
H          6.16100       -4.10990        2.46450
H          4.46940       -4.19160        2.24370
H          7.28910       -4.68960        0.76730
H          7.78190       -5.05910       -1.53590
H          6.19860       -4.31130       -3.25010
H          4.24470       -3.21740       -2.69150
