63

C          2.32700        0.03400        0.00000
N          1.48980        1.14130        0.02860
C          1.72880        2.60260       -0.05360
C          1.27200        3.35030        1.20900
C          3.15780        2.99890       -0.41410
C          0.22660        0.63650        0.01750
C          0.27800       -0.71490       -0.08580
C         -0.89050       -1.49890       -0.13670
C         -2.13260       -0.85250       -0.07020
C         -2.19410        0.54860       -0.00720
C         -1.01360        1.30870        0.02040
N          1.56660       -1.10240       -0.19200
C          1.92960       -2.42080       -0.74590
C          2.52540       -3.43450        0.15460
C          1.75610       -4.53310        0.58480
C          2.34720       -5.54830        1.33460
C          3.70990       -5.48070        1.63870
C          4.47660       -4.39590        1.19660
C          3.88470       -3.37150        0.45870
Cu         4.47690        0.05800        0.00140
Br         4.47480        0.08610        2.59130
C          4.47850        0.03470       -2.14840
C          3.38500        0.05430       -2.91690
N          6.57670        0.08150        0.00280
C          7.40900       -0.10210        1.06140
N          8.71680       -0.02830        0.70200
C          9.90560       -0.14650        1.53620
C          9.80770       -0.26640        2.93730
C         10.96730       -0.34790        3.72380
C         12.22750       -0.31640        3.12680
C         12.34050       -0.20260        1.74380
C         11.19390       -0.11640        0.95110
C          8.70710        0.19680       -0.62130
C          7.41240        0.28540       -1.04400
H          1.11030        2.96070       -0.91250
H          1.93390        3.10890        2.06180
H          0.24050        3.10350        1.51560
H          1.29330        4.44530        1.01600
H          3.85770        2.79110        0.41770
H          3.17330        4.09210       -0.63400
H          3.48550        2.48230       -1.33690
H         -0.86770       -2.57730       -0.20120
H         -3.04690       -1.43340       -0.08490
H         -3.15750        1.04230        0.01500
H         -1.10170        2.38350        0.03670
H          2.55950       -2.29280       -1.65040
H          1.02670       -2.87960       -1.20360
H          0.70390       -4.61360        0.32740
H          1.75440       -6.39290        1.66250
H          4.17290       -6.27580        2.20440
H          5.53440       -4.35430        1.40920
H          4.48380       -2.55040        0.08570
H          5.37830       -0.00960       -2.71790
H          2.38200        0.09460       -2.52420
H          3.49810        0.02990       -3.99820
H          7.07930       -0.27990        2.07000
H          8.85190       -0.28450        3.42980
H         10.88040       -0.42820        4.79490
H         13.11890       -0.37670        3.73760
H         13.32090       -0.17980        1.28120
H         11.34390       -0.02890       -0.11410
H          9.56530        0.30910       -1.26850
H          7.17750        0.48590       -2.06560
