69

P          0.93170        0.01730        0.07100
C          0.08240       -1.41440       -1.01260
C         -1.46760       -1.51730       -1.04020
C          0.58100       -1.32580       -2.47130
C          0.53470       -2.83950       -0.60350
C          0.63550       -0.36990        1.97660
C          1.31440       -1.63670        2.54090
C          1.20490        0.77060        2.85350
C         -0.85800       -0.49190        2.38320
C          0.10420        1.67220       -0.64070
C         -1.44180        1.69340       -0.46610
C          0.59130        2.92940        0.12030
C          0.30610        2.01180       -2.14230
Cu         3.39170        0.01730        0.07100
Br         3.65350       -2.42950        0.43470
C          3.57380        1.89800       -0.74120
C          3.71360        2.04590       -2.05900
P          5.85170        0.01730        0.07100
C          7.03980       -1.19540       -0.62500
C          6.49260        1.56100       -0.66320
C          6.38740       -0.37470        1.85700
C          5.96200       -1.73380        2.44570
C          7.93630       -0.28140        2.00280
C          5.80680        0.73570        2.73990
H         -1.95580       -0.75860       -1.63990
H         -1.93170       -1.61140       -0.05180
H         -1.77560       -2.43330       -1.59480
H          0.18980       -0.49690       -3.04390
H          0.25050       -2.20600       -3.06880
H          1.69290       -1.28950       -2.51660
H          0.18010       -3.15530        0.38420
H          1.58730       -3.01300       -0.77930
H          0.08500       -3.60930       -1.27170
H          2.40270       -1.54310        2.51190
H          0.97540       -2.58250        2.12320
H          1.08190       -1.75110        3.62490
H          2.27250        0.96130        2.62470
H          1.12500        0.52210        3.93700
H          0.61940        1.69140        2.78730
H         -1.36530       -1.33770        1.90450
H         -1.41950        0.44230        2.25380
H         -0.95930       -0.68330        3.47450
H         -1.79130        1.35040        0.50220
H         -1.97740        1.15870       -1.24900
H         -1.86210        2.71200       -0.60260
H          0.45380        2.87980        1.19400
H          0.01790        3.83210       -0.18670
H          1.61320        3.20740       -0.10640
H         -0.29510        1.40210       -2.82440
H          1.34510        2.00990       -2.46330
H         -0.09600        3.02680       -2.36470
H          3.62800        2.76090       -0.09120
H          3.70110        1.17570       -2.70970
H          3.84500        3.03140       -2.49380
H          6.83880       -1.22400       -1.71830
H          6.86630       -2.22340       -0.25840
H          8.09730       -0.88670       -0.54540
H          6.25380        1.60430       -1.74340
H          7.59690        1.58390       -0.56710
H          6.09060        2.44350       -0.12700
H          6.30510       -2.59050        1.83080
H          4.87720       -1.77460        2.62270
H          6.41800       -1.86920        3.45080
H          8.47110       -1.12290        1.51830
H          8.24890       -0.33640        3.06610
H          8.32170        0.67720        1.59050
H          4.69840        0.72300        2.70530
H          6.16030        1.73370        2.40120
H          6.12630        0.60760        3.80030
