58

P          1.03350       -0.09380        0.00870
C          0.09330        1.42900        0.88830
C         -1.47000        1.52120        0.90930
C          0.44990        1.57700        2.39880
C          0.53630        2.76140        0.24980
C          0.68140        0.17210       -1.93020
C          1.39010        1.40540       -2.53960
C          1.15920       -0.99050       -2.83950
C         -0.82500        0.27190       -2.30000
C          0.26800       -1.66000        0.91140
C         -1.27940       -1.73150        0.75520
C          0.79870       -2.95940        0.28510
C          0.54460       -1.82930        2.42760
Cu         3.49350       -0.09380        0.00870
Br         3.50660       -2.24750       -1.28980
C          3.55490        1.31500        1.52630
C          3.73070        2.62820        1.36250
N          5.59350       -0.09380        0.00870
C          6.30040       -0.91210       -0.86110
C          7.69210       -0.94560       -0.88070
C          8.42210       -0.16860        0.00980
C          7.74310        0.66390        0.87040
C          6.34050        0.70090        0.85630
H         -1.96210        0.83050        1.59580
H         -1.97700        1.50660       -0.05360
H         -1.77050        2.50220        1.34830
H          0.01710        0.81850        3.04050
H          0.02130        2.50940        2.82770
H          1.49830        1.66030        2.63610
H         -0.04840        2.98080       -0.65630
H          1.61250        2.78190        0.04050
H          0.30600        3.63830        0.89590
H          2.48100        1.36400       -2.35460
H          1.01300        2.37680       -2.23480
H          1.22790        1.43380       -3.64250
H          2.24360       -0.97710       -2.98080
H          0.82340       -0.85510       -3.89220
H          0.75310       -1.97300       -2.56080
H         -1.31230        1.15840       -1.90020
H         -1.38720       -0.65220       -2.08860
H         -0.96100        0.40020       -3.39730
H         -1.63380       -1.48050       -0.24520
H         -1.81120       -1.12940        1.49320
H         -1.68090       -2.74140        0.97920
H          0.62120       -3.01270       -0.79290
H          0.27390       -3.84980        0.70310
H          1.85820       -3.10790        0.54430
H         -0.02080       -1.14910        3.06780
H          1.62130       -1.80430        2.66730
H          0.13200       -2.80890        2.77280
H          3.49770        0.91920        2.53840
H          3.83780        3.06770        0.37890
H          3.77830        3.27380        2.23820
H          5.84160       -1.52270       -1.58860
H          8.20910       -1.59200       -1.57600
H          9.50330       -0.20050        0.00280
H          8.29310        1.28790        1.56830
H          5.91850        1.35930        1.58420
