79

C          2.31350        0.00690        0.27860
N          1.45810        1.03480        0.05790
C          1.73460        2.47810       -0.07670
C          2.53700        2.89450       -1.28320
C          2.73540        4.42500       -1.26250
C          3.54540        4.83990       -2.47620
C          0.20930        0.52600        0.12090
C          0.28230       -0.80560        0.42180
C         -0.90430       -1.57700        0.44530
C         -2.14460       -0.94510        0.18620
C         -2.20650        0.43670       -0.03900
C         -1.02970        1.18870       -0.07000
N          1.58980       -1.15090        0.66890
C          2.07080       -2.42780        1.28890
C          1.34170       -2.54790        2.64420
C          0.19840       -3.36800        2.76070
C         -0.71930       -3.15230        3.79540
C         -0.47340       -2.18040        4.76380
C          0.74020       -1.49340        4.76370
C          1.64980       -1.67540        3.71280
Cu         4.47690        0.05800        0.00140
Br         4.27610       -0.51250       -2.51700
C          4.64350        0.53170        2.09200
C          5.67740        1.23470        2.42400
P          7.11930        0.19760       -0.39290
N          8.24300       -0.15150       -1.75240
C          9.70150       -0.07050       -1.70320
C          7.82760       -1.32650       -2.55430
O          8.18780       -0.09920        0.99530
C          8.39830        0.74070        2.10650
C          8.22360        0.23060        3.42020
C          8.19390        1.07450        4.55650
C          8.38180        2.44640        4.43240
C          8.68390        2.96860        3.18260
C          8.70120        2.13190        2.02140
C          9.14800        2.71220        0.76280
C         10.40120        3.38460        0.87000
C         11.04620        3.87790       -0.24670
C         10.42580        3.76780       -1.48280
C          9.16130        3.14910       -1.60940
C          8.49470        2.55950       -0.50690
O          7.30010        1.85370       -0.72770
H          2.23710        2.82390        0.85100
H          0.78870        3.05170       -0.13830
H          1.98140        2.61120       -2.20330
H          3.52340        2.39340       -1.25000
H          3.27290        4.73700       -0.33730
H          1.75660        4.96200       -1.27670
H          4.52180        4.31200       -2.45780
H          3.72200        5.93510       -2.47290
H          2.99100        4.56180       -3.39720
H         -0.90430       -2.63740        0.60400
H         -3.06970       -1.51180        0.15760
H         -3.16310        0.92530       -0.21330
H         -1.13370        2.24620       -0.26860
H          3.17300       -2.42160        1.44080
H          1.80520       -3.28430        0.63490
H         -0.06250       -4.09160        2.00050
H         -1.65640       -3.69480        3.80790
H         -1.22680       -1.95640        5.50970
H          0.94160       -0.76540        5.54080
H          2.54710       -1.07680        3.71330
H          3.84060        0.56830        2.81800
H          6.28070        1.52500        1.60710
H          5.80430        1.71780        3.37900
H         10.06290        0.85480       -1.27010
H         10.07380       -0.05440       -2.76180
H         10.14920       -0.92500       -1.17000
H          6.73410       -1.44120       -2.62460
H          8.24430       -2.28420       -2.17030
H          8.16630       -1.20690       -3.61280
H          8.03980       -0.81730        3.56860
H          7.98800        0.67550        5.54250
H          8.31410        3.09940        5.30560
H          8.87860        4.04150        3.12770
H         10.92890        3.47980        1.82230
H         12.03380        4.32960       -0.14750
H         10.94900        4.14940       -2.34930
H          8.73590        3.07020       -2.59330
