64

N         -1.47340       -0.38400       -0.14310
C         -0.83570       -1.22660       -1.00870
C          0.53670       -1.45870       -0.88650
C          1.24760       -0.82090        0.13170
Cl         2.96850       -1.11150        0.32150
C          0.57890        0.03720        1.00930
C         -0.79640        0.24110        0.85590
Cu        -3.47560       -0.20170       -0.28210
Br        -3.73400       -2.10720        1.45310
C         -3.26110        1.38000       -1.72240
C         -2.09020        1.91800       -2.06710
P         -5.96700       -0.07150       -0.53710
C         -6.94260        1.57670       -0.69990
C         -6.66360        2.45570       -1.95110
C         -8.48440        1.45990       -0.63890
C         -6.39680        2.43980        0.47380
C         -6.21950       -1.11010       -2.15800
C         -5.68210       -2.57150       -2.04390
C         -7.72370       -1.28390       -2.46600
C         -5.49700       -0.55050       -3.39280
C         -6.74700       -1.02840        0.90170
C         -7.59510       -0.48310        1.88920
C         -8.17010       -1.26710        2.90840
C         -7.93140       -2.66120        3.01690
N         -8.49470       -3.48530        4.08060
C         -9.41370       -2.96890        5.08800
C         -8.18730       -4.90670        4.25750
C         -7.09580       -3.20530        2.03180
C         -6.54870       -2.41870        1.02560
H         -1.40050       -1.73630       -1.77910
H          1.03960       -2.13830       -1.56480
H          1.11610        0.52790        1.80940
H         -1.32940        0.88440        1.54230
H         -4.11670        1.71970       -2.23790
H         -1.15730        1.60230       -1.62360
H         -2.05850        2.68490       -2.83510
H         -6.93580        1.96460       -2.89370
H         -5.66450        2.90890       -1.98480
H         -7.29320        3.37080       -1.92090
H         -8.91920        1.07800       -1.56950
H         -8.91990        2.47690       -0.51940
H         -8.89220        0.85040        0.16920
H         -5.29270        2.55820        0.36380
H         -6.52310        2.01900        1.47850
H         -6.83520        3.45940        0.48220
H         -6.37440       -3.24460       -1.50510
H         -4.64310       -2.61190       -1.65510
H         -5.68840       -3.09190       -3.02720
H         -8.26390       -1.65980       -1.56510
H         -7.89600       -2.02430       -3.27860
H         -8.17390       -0.35270       -2.82510
H         -4.40510       -0.51740       -3.21830
H         -5.85850        0.42760       -3.71230
H         -5.66980       -1.21790       -4.26980
H         -7.85060        0.54910        1.93020
H         -8.79150       -0.72810        3.59720
H         -9.68730       -1.91320        4.97770
H         -8.96320       -3.08900        6.09630
H        -10.36340       -3.54390        5.05190
H         -7.49590       -5.34950        3.52960
H         -9.12270       -5.50440        4.20610
H         -7.72350       -5.06660        5.25470
H         -6.82130       -4.24370        1.99050
H         -5.91340       -2.96070        0.38000
