31

N         -1.46020       -0.08500       -0.07820
C         -0.81620        1.08180       -0.36550
C          0.58160        1.15290       -0.31260
C          1.31380        0.01720        0.03660
C          0.64450       -1.17100        0.33040
C         -0.75460       -1.20490        0.26080
Cu        -3.47560       -0.20170       -0.28210
Br        -3.17540       -0.86110       -2.76870
C         -3.72490        0.34560        1.78210
C         -2.68550        0.60130        2.58320
N         -5.55510       -0.42140       -0.46870
C         -6.01080       -0.80880       -1.82320
C         -5.97950       -1.48560        0.46780
C         -6.26190        0.81320       -0.06820
H         -1.38800        1.95330       -0.64990
H          1.09520        2.07590       -0.55040
H          2.39650        0.05670        0.07160
H          1.20730       -2.05690        0.59890
H         -1.27700       -2.12810        0.47140
H         -4.68280        0.42600        2.26500
H         -1.66170        0.54970        2.24800
H         -2.85170        0.86740        3.62190
H         -5.63110       -1.81580       -2.11080
H         -5.70750       -0.04690       -2.57010
H         -7.11990       -0.86860       -1.88520
H         -5.44970       -2.43230        0.21820
H         -7.07510       -1.67760        0.39790
H         -5.74820       -1.26330        1.52120
H         -5.90730        1.65740       -0.69420
H         -6.14080        1.09230        0.98460
H         -7.36020        0.71340       -0.22630
