36

N         -1.37900       -0.12480       -0.05790
C         -0.73620        1.13340        0.13520
C          0.65770        1.21630       -0.01270
C          1.33680        2.56710       -0.13190
C          1.37040        0.12250       -0.04680
C          0.74720       -1.12410        0.07440
C         -0.65310       -1.22580       -0.08130
Cu        -3.46220       -0.19300       -0.27850
Br        -3.79310        0.86730        2.04480
C         -3.23140       -1.08000       -2.22800
C         -1.97800       -1.31940       -2.71030
N         -5.56020       -0.30590       -0.50720
C         -6.17200       -1.37850       -1.18260
C         -7.51530       -1.28320       -1.57580
C         -8.27300       -0.33620       -1.08940
O         -9.62430       -0.23200       -1.49380
C        -10.16030       -1.15490       -2.42650
C         -7.74040        0.57380       -0.16650
C         -6.34020        0.66920       -0.00020
H         -1.28150        1.98040        0.37540
H          0.59940        3.34270       -0.08450
H          1.85540        2.62670       -1.06800
H          2.03550        2.69030        0.67020
H          2.39540        0.18180       -0.16200
H          1.31050       -1.96790        0.27470
H         -1.10410       -2.14680       -0.21540
H         -4.05360       -1.34120       -2.78780
H         -1.14770       -1.06850       -2.14930
H         -1.85530       -1.74670       -3.64380
H         -5.63110       -2.23680       -1.38880
H         -7.91000       -1.95960       -2.24940
H        -11.18940       -0.92420       -2.61250
H        -10.08430       -2.14860       -2.03200
H         -9.61100       -1.09500       -3.34510
H         -8.37260        1.17510        0.38890
H         -5.92320        1.47270        0.50040
