42

N         -1.42190       -0.12620       -0.09330
C         -0.79930        1.09070       -0.10250
C          0.60710        1.19590       -0.13630
C          1.30870        2.51640       -0.32440
C          1.36670        0.03100       -0.03800
C          0.72980       -1.20710        0.02670
C         -0.66940       -1.27800       -0.07390
Cu        -3.47560       -0.20170       -0.28210
Br        -3.17880       -1.58180       -2.45350
C         -3.72210        0.94390        1.52050
C         -2.72330        1.37010        2.30370
N         -5.49600       -0.32720       -0.47040
C         -6.30440        0.66940       -0.43860
C         -5.85860        2.11860       -0.50610
C         -4.50420        2.46960       -0.71530
C         -4.07800        3.79630       -0.74160
C         -5.00530        4.82330       -0.64300
C         -6.36170        4.51830       -0.52920
C         -6.78820        3.18130       -0.45100
N         -7.64670        0.27590       -0.65960
C         -7.65210       -1.10540       -1.06350
C         -6.24410       -1.56820       -0.68470
H         -1.39310        1.99090       -0.17990
H          0.59140        3.36030       -0.39460
H          1.88040        2.48640       -1.28160
H          2.02690        2.71210        0.49760
H          2.45120        0.08650       -0.02730
H          1.32610       -2.10440        0.13260
H         -1.15560       -2.24110       -0.04520
H         -4.72960        1.20550        1.82500
H         -1.68890        1.15970        2.11340
H         -2.92280        1.96600        3.18520
H         -3.74490        1.73440       -0.85720
H         -3.02380        4.02630       -0.84550
H         -4.66940        5.85250       -0.67210
H         -7.07980        5.32620       -0.49180
H         -7.84550        2.99570       -0.34750
H         -8.44360        0.90920       -0.81770
H         -7.76420       -1.14170       -2.16840
H         -8.46870       -1.70470       -0.59820
H         -5.80250       -2.34990       -1.32850
H         -6.34380       -2.00360        0.34200
