52

N         -1.41810       -0.45170        0.14350
C         -0.92630       -0.31600        1.39960
C          0.44360       -0.33260        1.70540
C          1.36230       -0.47080        0.67980
F          2.69370       -0.43730        0.94560
C          0.89380       -0.66310       -0.61170
C         -0.50150       -0.68720       -0.86530
Cu        -3.47560       -0.20170       -0.28210
Br        -3.06500       -1.73190       -2.33100
C         -3.81660        1.06850        1.41880
C         -3.25280        1.48880        2.57600
P         -5.83070        0.10570       -0.72220
O         -7.29060        0.99680       -0.63720
C         -6.97350        2.17540       -1.46760
C         -6.98460        1.80820       -2.99970
C         -7.97450        3.31000       -1.21820
O         -6.21630       -0.94910       -1.98990
C         -5.94890       -2.30790       -1.67120
C         -6.70140       -3.00870       -0.54870
C         -6.08940       -3.07090       -2.98170
O         -6.55650       -0.43970        0.80980
C         -6.02860       -0.46360        2.12080
C         -6.50230        0.83260        2.79750
C         -6.61770       -1.60470        2.99770
H         -1.57730       -0.33120        2.21270
H          0.78050       -0.23300        2.72950
H          1.60780       -0.77190       -1.42110
H         -0.77030       -0.75110       -1.89020
H         -4.71150        1.56670        1.19130
H         -2.39540        1.13290        3.10480
H         -3.75860        2.23430        3.17220
H         -5.97270        2.62800       -1.20460
H         -8.04920        1.67850       -3.22050
H         -6.23090        1.02770       -3.12460
H         -6.78160        2.17470       -4.03350
H         -8.99920        2.92340       -1.37610
H         -7.80210        4.14990       -1.93320
H         -7.88710        3.71870       -0.18830
H         -4.97870       -2.46830       -1.23370
H         -7.78750       -2.90000       -0.64850
H         -6.32580       -2.68560        0.43880
H         -6.39690       -4.08410       -0.55300
H         -7.15020       -3.02360       -3.29620
H         -5.76210       -4.12390       -2.86920
H         -5.46830       -2.59750       -3.77530
H         -4.96480       -0.75540        2.13250
H         -7.60640        0.86280        2.76140
H         -6.26830        1.76710        2.28560
H         -6.11130        0.90290        3.82990
H         -7.72460       -1.55000        3.06390
H         -6.22440       -1.50670        4.04080
H         -6.32910       -2.62520        2.67210
