69

P          1.01620       -0.07670       -0.06210
O         -0.36130       -0.30380       -1.05610
C         -0.09660        0.36200       -2.29280
O          0.66470       -1.30030        1.07930
C          0.67590       -2.56910        0.47490
O          0.67100        1.58020        0.23960
C         -0.69670        1.70780        0.62130
Cu         3.47620       -0.07670       -0.06210
Br         3.47620        0.53040        2.45570
C          3.47620       -0.58060       -2.15220
C          3.44910        0.32040       -3.13180
P          5.93620       -0.07670       -0.06210
C          6.93130        0.62750        1.43090
C          6.74910       -0.21960        2.71020
C          8.44850        0.83170        1.25900
C          6.38260        2.05890        1.71150
C          6.44640       -1.92390       -0.28880
C          5.86470       -2.55190       -1.57110
C          7.98600       -2.06430       -0.34710
C          5.94960       -2.86220        0.84460
C          6.28130        0.99030       -1.51730
C          5.81810        2.31890       -1.54310
C          6.05780        3.15280       -2.63660
C          6.76690        2.68360       -3.77750
N          6.94930        3.51670       -4.95890
C          6.54840        4.91810       -5.02620
C          7.50830        3.01530       -6.21970
C          7.25120        1.35670       -3.72080
C          7.01680        0.53760       -2.61540
H         -0.43850       -0.25210       -3.14830
H          0.97300        0.57050       -2.50920
H         -0.60560        1.34780       -2.33040
H         -0.02410       -3.21570        1.04710
H          1.69040       -3.00990        0.54100
H          0.29700       -2.58730       -0.56940
H         -0.87900        2.71400        1.04020
H         -1.00670        0.95960        1.38540
H         -1.38890        1.64770       -0.24920
H          3.41660       -1.61440       -2.45160
H          3.44070        1.38160       -2.92370
H          3.40230       -0.02340       -4.16310
H          7.39000       -1.11490        2.70720
H          5.72450       -0.55450        2.93270
H          7.09410        0.33540        3.62340
H          9.03450       -0.09070        1.22690
H          8.84170        1.36660        2.15690
H          8.66800        1.44630        0.36630
H          5.28960        2.14180        1.69510
H          6.74410        2.78490        0.95940
H          6.71690        2.44290        2.70100
H          6.03180       -1.97720       -2.49300
H          4.79230       -2.74450       -1.43290
H          6.30090       -3.56190       -1.74370
H          8.47070       -1.35810       -1.04440
H          8.29260       -3.09090       -0.64010
H          8.42090       -1.94230        0.65510
H          4.84350       -2.85590        0.92010
H          6.35470       -2.65400        1.83710
H          6.27280       -3.90940        0.63710
H          5.25340        2.71130       -0.71370
H          5.64660        4.14020       -2.56070
H          6.16210        5.34750       -4.09200
H          5.76620        5.04060       -5.80740
H          7.41720        5.53900       -5.31540
H          7.79820        1.95740       -6.22910
H          8.40880        3.60060       -6.49720
H          6.75110        3.12500       -7.02800
H          7.82600        0.90060       -4.50810
H          7.43630       -0.44450       -2.66220
