29

N         -0.67900        1.19300        0.00100
C          0.68180        1.19470        0.02080
F          1.35220        2.37200        0.03880
C          1.38710       -0.01170        0.02950
C          0.67650       -1.21580        0.01460
F          1.34200       -2.39610        0.01960
C         -0.71990       -1.19710       -0.00230
C         -1.38810        0.03140       -0.00520
F         -2.74240        0.06800       -0.02280
Cu        -1.69140        3.03290        0.00550
Br        -1.75630        2.99080        2.59430
C         -1.63750        3.06780       -2.14360
C         -1.22480        2.04070       -2.88960
N         -2.70380        4.87270        0.01000
C         -2.48110        5.79240        1.00970
F         -1.53650        5.60020        1.95570
C         -3.13760        7.03060        1.02450
C         -4.04960        7.34290        0.02670
F         -4.70150        8.53120        0.03830
C         -4.30220        6.41040       -0.97370
C         -3.60750        5.19440       -0.97930
F         -3.97770        4.29760       -1.91770
H          2.46770       -0.01370        0.04930
H         -1.27860       -2.12450       -0.01630
H         -1.91400        3.96440       -2.68100
H         -0.90030        1.10510       -2.46160
H         -1.19980        2.13800       -3.97050
H         -2.92640        7.74350        1.80720
H         -5.02220        6.63170       -1.75070
