54

P          0.94530        0.00500        0.08350
O         -0.26820        0.40790        1.23120
C          0.12950       -0.26090        2.44110
C         -0.62570        0.22630        3.66930
O          0.52930        1.06920       -1.18500
C          0.57970        2.40840       -0.77550
C         -0.08210        3.23630       -1.87380
O          0.49950       -1.65770       -0.00340
C         -0.90090       -1.74690       -0.30480
C         -1.41990       -3.15080       -0.05390
Cu         3.40530        0.00500        0.08350
Br         3.40530       -0.96950       -2.31610
C          3.40530        0.81390        2.07560
C          3.93660        0.17520        3.11600
P          5.86530        0.00500        0.08350
C          6.96060       -0.96070        1.20030
C          6.33850       -0.81560       -1.47140
C          6.61950        1.65560        0.60580
C          6.32410        2.13700        2.03480
C          8.16610        1.62440        0.42110
C          6.08780        2.70500       -0.39450
H          1.19210       -0.13250        2.68290
H         -0.07300       -1.35550        2.36030
H         -0.41390        1.30100        3.85380
H         -0.25800       -0.34740        4.55450
H         -1.71230        0.05480        3.56420
H          1.63480        2.73330       -0.66140
H          0.00190        2.58920        0.15660
H          0.44260        3.07750       -2.84080
H         -0.05330        4.31560       -1.61950
H         -1.14300        2.92510       -1.99620
H         -1.10130       -1.43980       -1.34880
H         -1.54460       -1.14910        0.37040
H         -0.94430       -3.86960       -0.74610
H         -2.52350       -3.16330       -0.21490
H         -1.22400       -3.45220        0.99840
H          2.93700        1.78200        2.22410
H          4.40470       -0.79220        2.99310
H          3.90180        0.63620        4.09980
H          6.62920       -2.01990        1.12710
H          6.86500       -0.68220        2.26260
H          8.01520       -0.98130        0.86800
H          5.92400       -1.84540       -1.49660
H          7.44250       -0.89010       -1.53940
H          6.00150       -0.21440       -2.33740
H          6.64230        1.40520        2.80020
H          5.26700        2.39720        2.16320
H          6.88130        3.07760        2.23580
H          8.68430        0.98960        1.16490
H          8.60810        2.63380        0.56010
H          8.43810        1.27900       -0.60120
H          4.99390        2.79770       -0.32360
H          6.35860        2.41320       -1.43600
H          6.55260        3.69900       -0.19840
