52

N         -0.67900        1.19300        0.00100
C         -0.87290        0.32720        1.04020
F         -1.75740        0.66400        2.02570
C         -0.21900       -0.89350        1.06840
C          0.69720       -1.20400        0.04290
F          1.35140       -2.38540        0.06360
C          0.88640       -0.30530       -1.00470
C          0.18620        0.90440       -1.00670
F          0.36750        1.79320       -2.01110
Cu        -1.69140        3.03290        0.00550
Br         0.23320        4.08850        1.38020
C         -3.28900        2.15660       -1.13570
C         -3.60320        0.86410       -1.11530
P         -2.87730        5.18810        0.01070
O         -3.08550        6.55180        1.04530
C         -3.70090        7.72430        0.57040
C         -5.23300        7.62430        0.47740
C         -3.37930        8.78100        1.64110
O         -1.88800        6.07660       -1.06650
C         -2.04410        5.67930       -2.42430
C         -3.49690        5.58500       -2.95690
C         -1.34410        6.74080       -3.28050
O         -4.52950        4.76890       -0.12550
C         -5.00300        3.99060        0.97180
C         -4.77290        4.58180        2.38340
C         -6.51160        3.83200        0.76400
H         -0.37130       -1.59190        1.88430
H          1.57970       -0.53250       -1.79750
H         -4.00330        2.79970       -1.62380
H         -3.07760        0.15990       -0.48770
H         -4.52740        0.55240       -1.60070
H         -3.26880        8.04880       -0.39720
H         -5.68950        7.39490        1.46220
H         -5.55980        6.87870       -0.26550
H         -5.64910        8.60110        0.15850
H         -3.76580        8.44510        2.63460
H         -3.83810        9.76200        1.40720
H         -2.28170        8.90780        1.74480
H         -1.52260        4.70910       -2.57450
H         -4.03490        6.54960       -2.84660
H         -4.08830        4.79930       -2.46990
H         -3.48060        5.30570       -4.03350
H         -1.86950        7.71830       -3.18230
H         -1.35050        6.44830       -4.35300
H         -0.29280        6.87640       -2.95600
H         -4.55090        2.97930        0.95050
H         -5.24530        5.57110        2.50260
H         -3.69500        4.65730        2.63030
H         -5.22460        3.91490        3.14900
H         -7.00490        4.82970        0.76880
H         -6.96530        3.20860        1.56280
H         -6.71040        3.35020       -0.21630
