51

P          0.91880       -0.03620       -0.04570
O         -0.26170       -0.88560        0.87170
C          0.10110       -2.26810        0.76010
C         -0.59010       -3.15320        1.78080
O          0.48720        1.56910        0.33740
C          0.66750        1.84230        1.69780
C          0.13900        3.25100        1.93710
O          0.44630       -0.72560       -1.55530
C         -0.96350       -0.52540       -1.73010
C         -1.51220       -1.41490       -2.83410
Cu         3.37880       -0.03620       -0.04570
Br         3.08230        1.68350       -1.83090
C          3.48340       -1.20380        1.69780
C          4.22370       -0.74620        2.71950
N          5.47880       -0.03620       -0.04570
C          6.10400        0.94600       -0.75870
C          7.48520        1.00470       -0.88630
C          8.30030        0.00920       -0.33940
N          9.73760        0.02770       -0.55800
C         10.47370        1.18400       -1.06220
C         10.57680       -1.12790       -0.32770
C          7.64630       -1.01140        0.39180
C          6.25130       -0.99560        0.55100
H          1.17760       -2.43900        0.90870
H         -0.15620       -2.67540       -0.23900
H         -0.31840       -2.85270        2.81330
H         -0.24970       -4.20400        1.62410
H         -1.68680       -3.11450        1.63530
H          1.74940        1.81330        1.95780
H          0.08110        1.14700        2.33720
H          0.68490        3.97490        1.29630
H          0.26640        3.54070        3.00420
H         -0.94140        3.29960        1.67580
H         -1.19500        0.53900       -1.94010
H         -1.58460       -0.84660       -0.86900
H         -1.07380       -1.13680       -3.80970
H         -2.62120       -1.29240       -2.88430
H         -1.30170       -2.48220       -2.60790
H          2.98280       -2.14170        1.84050
H          4.77480        0.18570        2.62450
H          4.32310       -1.31020        3.64200
H          5.55010        1.73810       -1.21320
H          7.85540        1.83980       -1.46260
H          9.86370        2.08870       -1.18550
H         10.92820        0.93500       -2.04230
H         11.27380        1.45670       -0.35070
H         10.02820       -2.05280       -0.02390
H         11.34390       -0.92380        0.43980
H         11.09290       -1.42320       -1.28040
H          8.16820       -1.83710        0.84220
H          5.81390       -1.83690        1.06320
