49

N         -1.38600       -0.10690       -0.03690
C         -0.51470       -0.53780       -1.04920
C          0.84390       -0.74810       -0.75940
O          1.66740       -1.45060       -1.67060
C          1.12380       -1.94720       -2.88220
C          1.34410       -0.29120        0.35700
C          0.53320        0.41350        1.25370
C         -0.87310        0.36340        1.11420
Cu        -3.47460       -0.20250       -0.28190
Br        -3.49080       -2.59970        0.73580
C         -3.46710        1.77560       -1.12240
C         -2.29950        2.45680       -1.24960
P         -5.91830       -0.30770       -0.54840
C         -6.58920        1.38700       -0.71350
C         -6.32510       -1.27030       -2.04990
C         -5.30080       -1.82840       -2.86050
C         -5.57360       -2.14420       -4.19970
C         -6.80780       -2.18900       -4.61940
C         -7.85840       -1.93280       -3.73120
C         -7.58920       -1.32610       -2.48290
C         -6.65740       -1.11270        0.91690
C         -6.44330       -0.50240        2.18090
C         -6.83580       -1.17180        3.34900
C         -7.62920       -2.20440        3.27190
C         -8.09590       -2.63640        2.02530
C         -7.47540       -2.16920        0.84380
H         -0.87020       -0.70050       -2.00710
H          1.88740       -2.44790       -3.44160
H          0.73570       -1.13270       -3.46040
H          0.33270       -2.63630       -2.66420
H          2.34110       -0.45120        0.57470
H          0.96110        0.96590        2.01560
H         -1.48950        0.68650        1.87910
H         -4.35240        2.20990       -1.43200
H         -1.41240        2.02500       -0.94120
H         -2.29430        3.40800       -1.65450
H         -6.15680        1.86130       -1.57080
H         -6.34900        1.95300        0.16460
H         -7.65140        1.34270       -0.82950
H         -4.35930       -1.99680       -2.46800
H         -4.80000       -2.34220       -4.85470
H         -7.00690       -2.41500       -5.60730
H         -8.82770       -2.18390       -3.98860
H         -8.35530       -0.93070       -1.91310
H         -5.99880        0.42960        2.24000
H         -6.49960       -0.84920        4.27070
H         -7.91200       -2.70070        4.13220
H         -8.88950       -3.29650        1.96940
H         -7.65160       -2.63300       -0.06250
