40

N         -0.67900        1.19300        0.00100
C         -1.24450        0.11200       -0.60590
F         -2.48810        0.21420       -1.13780
C         -0.61490       -1.13280       -0.53090
C          0.64200       -1.23410        0.05940
F          1.29510       -2.42090        0.09070
C          1.22210       -0.10090        0.63260
C          0.50830        1.09800        0.65440
F          1.07520        2.21380        1.17270
Cu        -1.69140        3.03290        0.00550
Br        -2.00340        2.85490        2.57050
C         -1.43240        3.18060       -2.12370
C         -0.67140        2.34570       -2.83660
P         -2.87730        5.18810        0.01070
C         -2.82010        6.47380        1.32300
C         -2.42360        6.13250       -1.48610
C         -4.71060        4.84740        0.22510
C         -5.07120        4.22210        1.57640
C         -5.52120        6.17900        0.06230
C         -5.18390        3.92710       -0.89510
H         -1.10310       -2.01990       -0.93150
H          2.21740       -0.15300        1.06280
H         -1.92180        3.92800       -2.70060
H         -0.10980        1.54050       -2.39230
H         -0.59820        2.46930       -3.91260
H         -1.74640        6.75280        1.41150
H         -3.09050        6.10330        2.32610
H         -3.32570        7.41890        1.06380
H         -1.31370        6.24480       -1.48070
H         -2.84620        7.15340       -1.40910
H         -2.78370        5.72920       -2.44050
H         -4.80220        4.87180        2.45000
H         -4.59930        3.23360        1.69640
H         -6.17490        4.09640        1.66400
H         -5.35110        6.92250        0.87460
H         -6.61610        5.98750        0.10310
H         -5.29240        6.68050       -0.90860
H         -4.66840        2.95450       -0.83070
H         -4.98860        4.38980       -1.88190
H         -6.28240        3.76670       -0.80980
