64

P          1.05620        0.08100        0.01680
C          0.14720        1.00340       -1.32010
C         -1.36550        1.02870       -1.52930
C         -1.52990        2.24640       -2.44360
C         -0.66590        3.27080       -1.72360
C          0.59520        2.48580       -1.42350
C          0.48550       -1.66650       -0.33610
C          0.76100       -2.28200       -1.70800
C          0.34710       -3.73930       -1.44250
C          0.99290       -4.06640       -0.10480
C          1.12290       -2.70340        0.57260
C          0.42670        1.02740        1.55900
C         -1.07140        0.81340        1.89680
C         -1.20270        1.29440        3.33180
C         -0.03460        0.60440        3.96610
C          1.08950        0.75140        2.93530
Cu         3.51620        0.08100        0.01680
Br         3.51620       -1.42040        2.12720
C          3.51620        1.32740       -1.73510
C          3.78530        2.63420       -1.67620
N          5.61620        0.08100        0.01680
C          6.36040        0.89590       -0.80180
N          7.71400        0.88590       -0.76580
C          8.41350        0.03620        0.02810
O          9.75570        0.03670        0.07260
C         10.54270        0.97720       -0.56250
C          7.70740       -0.84420        0.82610
C          6.31810       -0.78870        0.82040
H          0.51410        0.54110       -2.26480
H         -1.92270        1.28950       -0.63610
H         -1.79030        0.08240       -1.92360
H         -2.57980        2.58490       -2.56520
H         -1.09250        2.03300       -3.44530
H         -1.15590        3.52140       -0.75490
H         -0.47090        4.22130       -2.26740
H          1.13600        2.91670       -0.55690
H          1.24920        2.57150       -2.31690
H         -0.61870       -1.68790       -0.18410
H          1.84680       -2.23470       -1.94330
H          0.17460       -1.82380       -2.53070
H          0.58550       -4.47750       -2.23470
H         -0.75490       -3.75460       -1.27810
H          2.02250       -4.46690       -0.27220
H          0.43080       -4.83080        0.47490
H          2.18250       -2.50400        0.40880
H          0.85910       -2.65500        1.65320
H          0.55380        2.12030        1.41480
H         -1.30800       -0.27590        1.86050
H         -1.80560        1.37810        1.32190
H         -2.17440        1.02480        3.80510
H         -1.06380        2.39620        3.37690
H         -0.31490       -0.47590        4.02140
H          0.22290        0.92960        4.99690
H          1.61720       -0.17940        3.04090
H          1.74860        1.61440        3.18510
H          3.29130        0.86800       -2.69200
H          4.02580        3.10060       -0.72800
H          3.78540        3.22960       -2.58440
H          5.93990        1.59640       -1.46930
H         11.60440        0.76420       -0.36220
H         10.29630        1.98950       -0.17080
H         10.36070        0.94950       -1.66100
H          8.22090       -1.56370        1.45390
H          5.86060       -1.51730        1.44230
