61

P          0.98970        0.07030        0.07040
C          0.00370        1.56470        0.64660
C          0.24490        1.90840        2.14800
C         -0.12880        3.38260        2.23410
C          0.60180        3.94600        1.04210
C          0.33770        2.91670       -0.05570
C          0.45400        0.03710       -1.73210
C          0.89890        1.15250       -2.68220
C          0.45520        0.60360       -4.03210
C          1.01740       -0.79990       -3.97240
C          0.70390       -1.25810       -2.54170
C          0.35190       -1.07880        1.39930
C         -1.19030       -1.16780        1.40390
C         -1.45600       -2.42930        2.19940
C         -0.49410       -3.38010        1.53120
C          0.78830       -2.56200        1.37230
Cu         3.44970        0.07030        0.07040
Br         3.44970       -2.37680       -0.77800
C          3.44970        2.10170        0.77470
C          3.72490        3.05000       -0.11850
N          5.54970        0.07030        0.07040
C          6.19530        0.22780        1.25660
C          7.58920        0.18960        1.30720
F          8.23320        0.20190        2.49990
C          8.30970        0.13310        0.11970
C          7.63440        0.02970       -1.12210
C          6.23280       -0.05980       -1.10460
H         -1.08590        1.42450        0.52280
H          1.31700        1.81590        2.37890
H         -0.30890        1.28360        2.86440
H          0.19860        3.85850        3.18600
H         -1.22120        3.50900        2.09950
H          1.67400        3.93190        1.31330
H          0.36950        4.99250        0.75670
H          1.22460        2.90230       -0.71670
H         -0.55800        3.21600       -0.63970
H         -0.65390        0.13050       -1.71170
H          2.00630        1.25610       -2.65130
H          0.41110        2.12620       -2.51850
H          0.82490        1.19150       -4.90030
H         -0.65870        0.55360       -4.07850
H          2.12030       -0.67320       -4.06280
H          0.69660       -1.49870       -4.77280
H          1.54940       -1.86880       -2.26610
H         -0.19620       -1.90730       -2.47610
H          0.65940       -0.70680        2.40200
H         -1.54440       -1.33050        0.35820
H         -1.71030       -0.28520        1.81250
H         -2.51750       -2.76720        2.14770
H         -1.17220       -2.27070        3.26440
H         -0.90510       -3.57330        0.51070
H         -0.36030       -4.36400        2.02640
H          1.26640       -2.91910        0.45660
H          1.44560       -2.73050        2.25420
H          3.33730        2.34730        1.82260
H          3.87690        2.77060       -1.15640
H          3.79860        4.09100        0.17360
H          5.61960        0.26530        2.17380
H          9.39110        0.13890        0.13330
H          8.18210        0.02230       -2.03890
H          5.68970       -0.11320       -2.03510
