46

P          0.99460        0.09440        0.03250
C         -0.45310        0.23600        1.17580
C          0.63300        1.76140       -0.57090
C          0.92160        2.87430        0.24280
C          0.50370        4.15480       -0.13540
C         -0.19430        4.33820       -1.33080
C         -0.47090        3.24110       -2.15130
C         -0.06520        1.95860       -1.77070
C          0.39850       -1.39630       -0.86010
C          0.43240       -1.52800       -2.26400
C         -0.09070       -2.67440       -2.87910
C         -0.66640       -3.69010       -2.12190
C         -0.71780       -3.57920       -0.73430
C         -0.17920       -2.45650       -0.11220
Cu         3.45460        0.09440        0.03250
Br         3.45460       -0.17610       -2.54330
C          3.45460        0.31900        2.17070
C          2.47400        0.02170        3.01910
N          5.55460        0.09440        0.03250
C          5.79220        1.28620       -0.79840
N          6.22600        0.14040        1.22240
C          7.27530       -0.58360        1.19230
C          7.35800       -1.25140       -0.01920
C          6.24890       -0.85890       -0.75270
H         -1.41880        0.32440        0.64820
H         -0.30830        1.12040        1.83620
H         -0.50160       -0.59670        1.90140
H          1.42890        2.74560        1.19160
H          0.70040        5.00200        0.50920
H         -0.53360        5.32720       -1.61550
H         -1.02370        3.38310       -3.07100
H         -0.33250        1.12500       -2.40030
H          0.84560       -0.75650       -2.88020
H         -0.05670       -2.76510       -3.95480
H         -1.09050       -4.56820       -2.60000
H         -1.17120       -4.36380       -0.13800
H         -0.24370       -2.43070        0.95990
H          4.37010        0.65810        2.63470
H          1.54690       -0.40570        2.70320
H          2.63830        0.15460        4.08550
H          5.31470        2.16440       -0.32040
H          5.41900        1.23600       -1.83190
H          6.88250        1.52100       -0.88730
H          7.97570       -0.66450        2.01750
H          8.11510       -1.96070       -0.32880
H          5.98610       -1.22050       -1.73830
