93

P          0.92920       -0.06930        0.01360
C         -0.04070       -1.50320        0.71250
C         -1.56200       -1.51010        0.68050
C         -1.86180       -2.97150        1.03720
C         -0.93220       -3.70410        0.08710
C          0.37330       -2.92180        0.20640
C          0.35440        1.29600        1.17290
C          0.80130        1.22850        2.63400
C          0.36010        2.61200        3.13910
C          0.76680        3.57870        2.03470
C          0.85250        2.68690        0.79650
C          0.29220       -0.08120       -1.75570
C          0.69870        1.06970       -2.66750
C          0.13940        0.62120       -4.01430
C          0.62560       -0.81490       -4.06970
C          0.51330       -1.33120       -2.62730
Cu         3.38920       -0.06930        0.01360
Br         3.38920        2.26500       -1.10840
C          3.38920       -2.00710        0.94500
C          3.96260       -3.05830        0.36150
P          5.84920       -0.06930        0.01360
C          6.73070       -0.16830       -1.60540
C          5.98180       -0.40090       -2.81420
C          4.48250       -0.55500       -2.88790
C          6.64510       -0.49750       -4.04110
C          8.01990       -0.38250       -4.11500
C          8.77050       -0.16300       -2.95090
C          8.12830       -0.04840       -1.70470
C          6.35600        1.71840        0.21250
C          6.73840        2.24890        1.50070
C          6.86760        1.44730        2.75560
C          7.08230        3.60560        1.65440
C          7.09760        4.45340        0.56170
C          6.79660        3.95790       -0.70220
C          6.42090        2.62050       -0.87770
C          6.40760       -1.62550        0.94990
C          6.09870       -2.00190        2.34000
C          5.26900       -1.26310        3.38100
C          6.60050       -3.21610        2.86240
C          7.38580       -4.06280        2.10410
C          7.69680       -3.72540        0.80200
C          7.21900       -2.54260        0.23430
H          0.21720       -1.53560        1.79600
H         -1.93360       -1.32830       -0.34820
H         -2.01960       -0.77880        1.37590
H         -2.92480       -3.25980        0.90770
H         -1.55020       -3.18900        2.08570
H         -1.33990       -3.55300       -0.93870
H         -0.82640       -4.80010        0.24330
H          0.92920       -3.01740       -0.73720
H          1.01680       -3.39620        0.97860
H         -0.75860        1.32430        1.14640
H          1.91050        1.15140        2.68550
H          0.34140        0.40080        3.20920
H          0.72280        2.91560        4.14310
H         -0.75310        2.61230        3.16000
H          1.78480        4.00340        2.22850
H          0.06200        4.43380        1.95220
H          1.91730        2.52430        0.76960
H          0.50980        3.13340       -0.16270
H         -0.81280        0.04540       -1.68290
H          1.79350        1.09080       -2.77190
H          0.31310        2.06110       -2.34660
H          0.49640        1.22990       -4.87470
H         -0.97270        0.64130       -3.99180
H          1.71330       -0.75180       -4.30170
H          0.16350       -1.46110       -4.84670
H          1.46350       -1.85840       -2.41910
H         -0.36790       -2.00010       -2.50180
H          2.88710       -2.12640        1.89850
H          4.47030       -2.93950       -0.58920
H          3.95940       -4.02620        0.85170
H          3.97850       -0.47470       -1.92810
H          4.22040       -1.55110       -3.30010
H          4.05730        0.22890       -3.55520
H          6.07830       -0.67230       -4.95250
H          8.50870       -0.47120       -5.07670
H          9.84130       -0.08120       -3.03200
H          8.72960        0.11150       -0.81680
H          6.87980        0.39270        2.53780
H          6.07870        1.73520        3.49720
H          7.85900        1.62640        3.21900
H          7.33090        3.99660        2.63060
H          7.37670        5.49050        0.69760
H          6.84680        4.62330       -1.55280
H          6.18780        2.30370       -1.88250
H          4.83660       -0.30300        3.05390
H          5.90150       -1.08270        4.28850
H          4.43120       -1.90620        3.73250
H          6.37820       -3.51860        3.88430
H          7.75580       -4.98650        2.53610
H          8.31970       -4.39060        0.21710
H          7.50630       -2.37390       -0.78080
