27

O         -0.32800       -1.08200        0.00300
C         -0.63130       -0.17280       -0.89260
N         -0.13340        1.03450       -0.56590
C          0.51620        0.82030        0.59270
C          0.32960       -0.49260        0.96960
Cu        -0.91570       -3.04590        0.01600
Br        -1.66300       -2.80590        2.48420
C         -0.29540       -3.24510       -2.03290
C          0.09550       -2.31740       -2.91790
N         -1.51780       -5.05770        0.02930
C         -2.51820       -4.98390       -1.04840
N         -0.69140       -5.99080       -0.55060
C         -0.66610       -7.07100        0.15370
C         -1.48120       -6.93580        1.27460
C         -2.00150       -5.67750        1.22920
H         -1.33240       -0.32840       -1.70530
H          1.09220        1.57060        1.11680
H          0.75520       -0.99050        1.83110
H         -0.21550       -4.25090       -2.42160
H          0.18350       -1.27350       -2.75350
H          0.40640       -2.61040       -3.91080
H         -2.13250       -5.00680       -2.08900
H         -3.13080       -4.06840       -0.92370
H         -3.21400       -5.85410       -1.00260
H         -0.07910       -7.94270       -0.10550
H         -1.65970       -7.68040        2.05280
H         -2.67790       -5.23390        1.94930
