92

P          1.06670        0.04890        0.05620
C         -0.04940        1.63850        0.19630
C         -0.01510        2.41850        1.57480
C          1.23140        3.31970        1.80600
C          1.42120        4.32120        0.65560
C          1.46350        3.54120       -0.63280
C          0.16840        2.74610       -0.86240
C          0.64060       -0.62860       -1.81510
C          1.07170        0.06090       -3.16040
C          2.39130       -0.45970       -3.80010
C          2.50520       -1.93710       -4.00150
C          2.18640       -2.61320       -2.65400
C          0.76740       -2.16760       -2.23180
C          0.13300       -0.91980        1.50990
C         -1.43180       -1.03640        1.31310
C         -1.83310       -2.06490        0.23040
C         -1.25060       -3.45560        0.51700
C          0.24840       -3.43130        0.89990
C          0.50280       -2.39530        1.96460
Cu         3.52670        0.04890        0.05620
Br         3.52670        1.58670       -2.02780
C          3.52670       -1.22760        1.78630
C          4.33620       -2.22370        2.15970
C          5.67670        0.04890        0.05620
N          6.44710        0.08780        1.24780
C          6.34240        0.26450        2.79430
C          4.95460        0.38450        3.48880
C          7.18100       -0.85640        3.48610
C          6.98760        1.62910        3.20860
C          7.73590        0.13630        0.80430
C          7.78150        0.16540       -0.51560
N          6.57130        0.12080       -1.06970
C          6.52860       -0.06210       -2.59560
C          7.94400       -0.18450       -3.25860
C          5.85870       -1.41070       -2.88010
C          5.92820        1.09070       -3.44560
H         -1.07700        1.31290        0.00620
H         -0.15970        1.76320        2.44810
H         -0.87580        3.12430        1.57740
H          2.13850        2.68490        1.89350
H          1.13480        3.90830        2.74530
H          2.38460        4.87160        0.78090
H          0.60410        5.07050        0.59770
H          2.28270        2.86860       -0.44470
H          1.67320        4.21030       -1.49530
H          0.09190        2.33180       -1.86090
H         -0.66370        3.48550       -0.82140
H         -0.44030       -0.41320       -1.82090
H          1.07760        1.14700       -3.11610
H          0.29320       -0.17370       -3.92640
H          3.19210       -0.42020       -3.11520
H          2.63700        0.12560       -4.71070
H          3.54680       -2.16800       -4.33210
H          1.82910       -2.25740       -4.81540
H          2.90000       -2.34890       -1.84140
H          2.27040       -3.70500       -2.82890
H          0.28230       -2.89920       -1.61290
H          0.14960       -2.34760       -3.14240
H          0.31080       -0.32070        2.41970
H         -1.95010       -0.08580        1.14530
H         -1.88870       -1.39110        2.26330
H         -1.51370       -1.74570       -0.75340
H         -2.94070       -2.14470        0.16380
H         -1.43310       -4.13270       -0.34890
H         -1.80440       -3.87460        1.38380
H          0.99880       -3.17470        0.15380
H          0.52500       -4.45190        1.23640
H          1.50770       -2.57760        2.33850
H         -0.13700       -2.67800        2.83770
H          2.71700       -0.95550        2.44220
H          5.21550       -2.52190        1.61360
H          4.10700       -2.71000        3.11210
H          4.54580       -0.56410        3.87910
H          4.24510        1.00700        2.90820
H          5.02100        0.87260        4.48810
H          6.95200       -1.86820        3.08000
H          7.03920       -0.87560        4.58710
H          8.27320       -0.72020        3.32900
H          6.39010        2.47190        2.81670
H          8.02660        1.74650        2.86930
H          7.03260        1.71840        4.32100
H          8.60150        0.20800        1.42080
H          8.74730        0.21920       -1.00410
H          8.52720       -1.02910       -2.85250
H          8.51590        0.76650       -3.15950
H          7.85700       -0.38620       -4.35470
H          6.44390       -2.23600       -2.42300
H          5.77320       -1.60450       -3.97170
H          4.87370       -1.44570       -2.39890
H          6.04450        2.07760       -2.94760
H          4.94620        0.81490       -3.86530
H          6.38910        1.23110       -4.44930
