93

P          0.96060        0.04890       -0.07780
C          0.08720       -0.75470       -1.70550
C          0.67050       -0.18800       -3.05900
C          2.10380       -0.69150       -3.31050
C          2.12650       -2.22440       -3.44260
C          1.30820       -2.89430       -2.33340
C         -0.02600       -2.29390       -2.01130
C          0.09880       -1.03680        1.31180
C          0.31020       -2.56640        1.50420
C          1.28650       -2.98300        2.60800
C          0.86350       -2.41300        3.95790
C          0.82700       -0.89320        3.87030
C         -0.13450       -0.44160        2.75840
C          0.07210        1.77990       -0.49190
C         -1.51400        1.71030       -0.54940
C         -2.16430        1.65420        0.83990
C         -1.84950        2.92390        1.62570
C         -0.33870        3.22430        1.66610
C          0.26950        3.14650        0.26260
Cu         3.42060        0.04890       -0.07780
Br         3.42060       -2.54100       -0.06670
C          3.42060        2.19890       -0.08700
C          3.33110        2.80870        1.09550
P          5.88060        0.04890       -0.07780
C          6.86770       -0.48550       -1.56040
C          7.13540        0.48480       -2.55570
C          7.79190        0.17350       -3.74570
C          8.19800       -1.13070       -3.99570
Cl         9.03570       -1.51600       -5.48810
C          7.90270       -2.12860       -3.06990
C          7.21950       -1.82140       -1.88460
C          6.55790        1.69910        0.30350
C          7.35290        1.78060        1.46110
C          7.88620        2.99850        1.88630
C          7.62720        4.16340        1.16340
Cl         8.27330        5.69820        1.71560
C          6.84570        4.10260        0.00660
C          6.31460        2.87930       -0.42540
C          6.15230       -1.38790        1.04700
C          7.32920       -2.17470        1.09040
C          7.44310       -3.23660        2.00020
C          6.42820       -3.49250        2.91880
Cl         6.56650       -4.82710        4.04750
C          5.32600       -2.65280        2.97340
C          5.19230       -1.61060        2.05020
H         -0.96890       -0.58040       -1.67080
H          0.65360        0.90430       -3.14110
H          0.04950       -0.53920       -3.91590
H          2.74810       -0.35960       -2.47010
H          2.52710       -0.26170       -4.24760
H          3.19120       -2.56450       -3.40270
H          1.70630       -2.54770       -4.41500
H          1.66430       -2.58850       -1.46040
H          1.35090       -4.00220       -2.37060
H         -0.52060       -2.82200       -1.17640
H         -0.66720       -2.49910       -2.89480
H         -0.90250       -1.00680        0.84370
H          0.54790       -3.10900        0.57450
H         -0.68330       -2.98370        1.85040
H          2.30570       -2.62670        2.38360
H          1.30670       -4.09140        2.68900
H          1.57300       -2.73380        4.75310
H         -0.14380       -2.81230        4.23740
H          1.84510       -0.49290        3.69230
H          0.46420       -0.50060        4.85210
H         -0.21240        0.63860        2.78350
H         -1.13050       -0.81730        3.09370
H          0.44190        2.04580       -1.48770
H         -1.98510        0.94460       -1.15380
H         -1.90320        2.62030       -1.05500
H         -1.84000        0.78210        1.38850
H         -3.26500        1.54750        0.74520
H         -2.26830        2.85810        2.65320
H         -2.36490        3.75920        1.10270
H          0.22510        2.55720        2.32390
H         -0.21650        4.24860        2.08430
H          1.27380        3.53510        0.23270
H         -0.26060        3.93500       -0.32840
H          3.49880        2.76090       -1.01010
H          3.21200        2.21770        1.99670
H          3.32130        3.89270        1.15730
H          6.83320        1.50060       -2.45300
H          7.97460        0.95280       -4.47720
H          8.18560       -3.15180       -3.27840
H          6.96780       -2.65850       -1.26140
H          7.55970        0.89400        2.04780
H          8.49120        3.03590        2.78360
H          6.63860        5.00580       -0.55220
H          5.70370        2.88250       -1.31160
H          8.15440       -1.99230        0.43800
H          8.32710       -3.85530        1.97660
H          4.54180       -2.80910        3.70100
H          4.32570       -0.96990        2.12290
