69

P          0.95180       -0.04650       -0.07430
C          0.08310        1.43870        0.46370
C         -1.28560        1.70720        0.33000
C         -1.80460        2.91000        0.84550
C         -0.96700        3.83170        1.49010
C          0.39350        3.56280        1.62020
C          0.91140        2.37700        1.10800
C          0.53390        0.13990       -1.85450
C          0.66090        1.31510       -2.61230
C          0.47450        1.29960       -4.00040
C          0.07670        0.12910       -4.64520
C         -0.16460       -1.02040       -3.89740
C          0.06510       -1.01620       -2.51770
C          0.18280       -1.42100        0.82750
C          0.55670       -2.73560        0.48940
C          0.07720       -3.80650        1.24490
C         -0.80300       -3.57990        2.29800
C         -1.19720       -2.27520        2.58570
O         -1.97070       -2.06390        3.49930
N         -0.70630       -1.21570        1.84560
Cu         3.41180       -0.04650       -0.07430
Br         3.41180        1.88100       -1.80430
C          3.41180       -1.64650        1.36190
C          2.55940       -1.95470        2.33840
P          5.87180       -0.04650       -0.07430
N          6.99640        0.47500       -1.40200
C          6.77820       -0.39110       -2.58620
C          6.67790        1.84370       -1.93510
N          6.17040        1.47560        0.83880
C          5.61510        1.36570        2.19010
C          7.61880        1.80830        0.99270
N          6.36010       -1.67910        0.45250
C          5.85600       -2.73620       -0.44870
C          7.79950       -1.82810        0.66830
H         -1.94070        0.99910       -0.15520
H         -2.85830        3.13210        0.75460
H         -1.36620        4.75400        1.89410
H          1.04940        4.26630        2.12130
H          1.97260        2.18320        1.22880
H          0.93490        2.24530       -2.14720
H          0.65000        2.19680       -4.57870
H         -0.05770        0.11650       -5.71980
H         -0.50540       -1.92310       -4.39090
H         -0.10510       -1.93740       -1.98130
H          1.27120       -2.92240       -0.30160
H          0.41110       -4.81310        1.02790
H         -1.16280       -4.41020        2.89630
H         -0.99700       -0.25460        2.11780
H          4.31710       -2.20300        1.49770
H          1.69710       -1.37260        2.57570
H          2.80090       -2.75770        3.03080
H          7.23810       -1.37370       -2.47510
H          7.27130        0.02900       -3.49610
H          5.68860       -0.47700       -2.83320
H          6.36510        2.59780       -1.18960
H          5.88310        1.85310       -2.71210
H          7.57290        2.25590       -2.44290
H          4.54340        1.09630        2.15940
H          5.70120        2.35120        2.70350
H          6.17860        0.61580        2.79290
H          8.14570        2.02100        0.04410
H          8.19000        1.01130        1.49850
H          7.74160        2.75040        1.56800
H          4.81640       -2.53060       -0.78270
H          5.85210       -3.70580        0.09150
H          6.48670       -2.89840       -1.33610
H          8.14260       -1.14220        1.46030
H          8.37050       -1.66260       -0.27000
H          8.01480       -2.85450        1.03920
