78

P          1.07010       -0.03530        0.06200
C          0.11330       -0.06930       -1.52850
C         -0.92730       -0.98070       -1.81690
C         -1.47560       -1.06490       -3.10370
C         -0.98590       -0.26490       -4.13540
C          0.01180        0.66880       -3.86940
C          0.53150        0.79030       -2.57450
C          0.51240       -1.65780        0.66030
C          0.97530       -2.84120        0.05230
C          0.36170       -4.06900        0.34040
C         -0.71350       -4.12900        1.23300
C         -1.16850       -2.96060        1.85280
C         -0.55740       -1.73180        1.57190
C          0.30810        1.50830        0.60790
C         -1.10420        1.56570        0.62420
C         -1.77020        2.75180        0.92000
C         -1.03340        3.90040        1.19760
C          0.36670        3.85430        1.19030
C          1.03900        2.65690        0.89100
Cu         3.53010       -0.03530        0.06200
Br         3.53010       -0.01270        2.65190
C          3.53010       -0.05410       -2.08790
C          4.51640        0.16930       -2.95130
C          5.68010       -0.03530        0.06200
N          6.44360        1.09110        0.05840
C          5.90050        2.46080        0.07920
C          6.36530        3.22510        1.32420
C          6.26180        3.22120       -1.20370
C          7.72350        0.63210        0.00560
C          7.71080       -0.73840       -0.05470
C          8.88290       -1.49210       -0.07810
C         10.10580       -0.80430       -0.06690
C         10.12710        0.60740       -0.03320
C          8.93050        1.34640       -0.00160
N          6.43730       -1.17030       -0.02180
C          5.99740       -2.58540       -0.02800
C          5.99620       -3.24440       -1.40530
C          6.25730       -2.51370       -2.57710
C          6.16010       -3.10690       -3.83970
C          5.83530       -4.45940       -3.95460
C          5.61040       -5.21770       -2.80450
C          5.68140       -4.61530       -1.53660
H         -1.32110       -1.64960       -1.07230
H         -2.26210       -1.77840       -3.30990
H         -1.37770       -0.37050       -5.14060
H          0.40380        1.27830       -4.67680
H          1.32990        1.50560       -2.41710
H          1.76560       -2.80750       -0.68430
H          0.69830       -4.97710       -0.14600
H         -1.20870       -5.07190        1.42910
H         -2.02340       -3.00460        2.51680
H         -0.96930       -0.83940        2.01950
H         -1.70310        0.69430        0.38250
H         -2.85400        2.77980        0.91330
H         -1.55370        4.82610        1.40950
H          0.92660        4.75630        1.39610
H          2.12220        2.64070        0.86120
H          2.60760       -0.34040       -2.53630
H          5.51100        0.45330       -2.65520
H          4.29490        0.06260       -4.01410
H          4.79170        2.40600        0.12130
H          7.46360        3.34650        1.35320
H          6.04130        2.68670        2.23810
H          5.91150        4.24060        1.33230
H          7.35530        3.34430       -1.32120
H          5.79600        4.23160       -1.19050
H          5.87030        2.68440       -2.09220
H          8.86160       -2.57220       -0.10900
H         11.03240       -1.35910       -0.08170
H         11.07760        1.12440       -0.02330
H          8.97070        2.42310        0.02240
H          4.96680       -2.65810        0.36900
H          6.65160       -3.16160        0.66840
H          6.51780       -1.47620       -2.52720
H          6.33170       -2.51430       -4.72830
H          5.75520       -4.91180       -4.93470
H          5.36890       -6.27000       -2.90230
H          5.49040       -5.22480       -0.66340
