68

P          1.09830       -0.00730       -0.01690
C          0.03760        0.43730        1.42400
C         -1.29090        0.91010        1.34010
C         -1.98950        1.25680        2.52190
C         -1.37000        1.14710        3.77880
C         -0.08380        0.64920        3.87050
C          0.58700        0.25920        2.71290
C          0.82220        1.28870       -1.23240
C          1.28610        2.58820       -0.98420
C          1.06710        3.60600       -1.91980
C          0.37920        3.33120       -3.10470
C         -0.08920        2.03750       -3.35640
C          0.13170        1.01630       -2.42320
C          0.52820       -1.71380       -0.14550
C         -0.85520       -1.96080       -0.27400
C         -1.35490       -3.26120       -0.23330
C         -0.48080       -4.33400       -0.07510
C          0.89700       -4.10530        0.03210
C          1.40420       -2.79720        0.00010
Cu         3.55830       -0.00730       -0.01690
Br         3.55830       -1.00720       -2.40600
C          3.55830        0.82280        1.96640
C          4.48060        0.59090        2.89430
P          6.01830       -0.00730       -0.01690
C          7.36750        0.29950        1.19620
C          6.53030       -1.60730       -0.64970
C          7.34870       -1.74330       -1.77890
C          7.81610       -3.01320       -2.15120
C          7.46740       -4.14210       -1.39850
C          6.65280       -4.01000       -0.27550
C          6.18960       -2.74560        0.10280
C          6.39500        1.46140       -1.03470
C          5.37650        2.30940       -1.49590
C          5.69840        3.47600       -2.20470
C          7.03590        3.81150       -2.44980
C          8.05340        2.97070       -2.01070
C          7.73760        1.80110       -1.32680
H         -1.79020        1.02490        0.39510
H         -3.00890        1.61340        2.48470
H         -1.88970        1.43270        4.68930
H          0.40860        0.55220        4.82920
H          1.55790       -0.16110        2.84880
H          1.81670        2.81380       -0.06870
H          1.42990        4.60800       -1.72600
H          0.20930        4.12060       -3.82700
H         -0.62360        1.82860       -4.27470
H         -0.23890        0.02050       -2.62930
H         -1.55810       -1.14740       -0.37300
H         -2.42350       -3.43110       -0.30380
H         -0.87450       -5.34230       -0.02510
H          1.56580       -4.94310        0.16520
H          2.46560       -2.63050        0.12210
H          2.73940        1.47760        2.22730
H          5.27990       -0.10170        2.71940
H          4.39370        1.05280        3.87260
H          7.30570       -0.46150        2.00070
H          7.19520        1.29490        1.66560
H          8.39500        0.22950        0.81350
H          7.65160       -0.87870       -2.34770
H          8.46650       -3.12010       -3.01090
H          7.84090       -5.11930       -1.68040
H          6.39780       -4.87890        0.31930
H          5.58630       -2.65150        0.99730
H          4.33940        2.08050       -1.29650
H          4.91640        4.13510       -2.55930
H          7.29170        4.72220       -2.98030
H          9.09320        3.22520       -2.18830
H          8.56690        1.19260       -1.01310
