32

P          1.04390       -0.07160        0.05430
F         -0.62260       -0.19110        0.15710
F          1.03020        1.18330        1.16220
F          0.92600        0.21000       -1.59040
Ni         3.50390       -0.07160        0.05430
Br         3.54900        1.45130       -1.90800
C          3.52060       -1.34510        1.67830
C          3.58660       -2.65710        1.48070
P          5.96390       -0.07160        0.05430
N          6.94760       -1.55100       -0.14720
C          8.39390       -1.36750       -0.16080
C          8.71450        0.04470        0.26530
C         10.24220        0.21450        0.36370
C          8.16610        1.01770       -0.85600
N          6.74110        0.83530       -1.21530
N          6.54080       -0.06960        1.71020
C          7.99840        0.29130        1.66080
H          3.49090       -0.94720        2.68490
H          3.62560       -3.04750        0.46800
H          3.60980       -3.34630        2.31490
H          6.63660       -2.05670       -1.01070
H          8.79890       -1.58020       -1.18010
H          8.83500       -2.10620        0.53760
H         10.71770       -0.01630       -0.61830
H         10.66300       -0.49170        1.11040
H         10.51110        1.25060        0.64750
H          8.76360        0.88510       -1.78940
H          8.32240        2.06690       -0.53350
H          6.65050        0.27210       -2.09310
H          6.39450       -1.01750        2.13760
H          8.52530       -0.29800        2.44300
H          8.11840        1.36200        1.92670
