54

P          1.03250       -0.01960        0.09250
F         -0.62370        0.02830        0.33070
F          0.98290        1.48180       -0.64790
F          0.90860       -1.45830       -0.75560
Ni         3.49250       -0.01960        0.09250
Br         3.12230        0.07210       -2.39400
C          3.41930        0.79140        2.01270
C          2.97430        2.03450        2.19470
P          5.95250       -0.01960        0.09250
C          6.54570        1.69620       -0.15930
C          6.18860        2.65470        0.81350
C          6.52790        3.99490        0.67450
C          7.20620        4.42490       -0.46630
C          7.51800        5.88200       -0.64490
C          7.57050        3.49180       -1.44820
C          7.24690        2.13510       -1.29960
C          6.53200       -0.16540        1.82270
C          5.85440       -1.00940        2.70590
C          6.25380       -1.11750        4.04590
C          7.35920       -0.39160        4.51120
C          7.77170       -0.44300        5.95520
C          8.08970        0.39170        3.61800
C          7.68720        0.49720        2.28450
C          6.52520       -0.95540       -1.36810
C          5.62590       -1.74670       -2.08740
C          6.02600       -2.50470       -3.18470
C          7.37020       -2.55510       -3.55120
C          7.79730       -3.40330       -4.71680
C          8.30910       -1.83620       -2.79280
C          7.88940       -1.03840       -1.71020
H          3.72480        0.24060        2.88610
H          2.64210        2.62920        1.35160
H          2.94260        2.46160        3.19310
H          5.64720        2.36310        1.70450
H          6.23700        4.69190        1.44790
H          7.16030        6.48500        0.21730
H          6.99960        6.25520       -1.55980
H          8.61040        6.03130       -0.75450
H          8.08910        3.81900       -2.33970
H          7.51630        1.46120       -2.09360
H          4.99580       -1.58200        2.36840
H          5.68660       -1.74960        4.72030
H          7.09950       -1.09170        6.55400
H          7.72480        0.58490        6.37830
H          8.81180       -0.81940        6.04390
H          8.96080        0.93730        3.95400
H          8.28500        1.11510        1.63140
H          4.60670       -1.82100       -1.78350
H          5.28220       -3.07630       -3.72710
H          6.92200       -3.86330       -5.22780
H          8.45550       -4.22340       -4.36210
H          8.34190       -2.78720       -5.46140
H          9.36180       -1.89670       -3.03950
H          8.63270       -0.50770       -1.12980
