31

P          0.94950       -0.06490        0.05690
F         -0.71310       -0.15280       -0.11680
F          0.93000       -1.42600        1.03130
F          0.81080        1.48360        0.67640
Ni         3.40950       -0.06490        0.05690
Br         3.24910        1.20340        2.21120
C          3.41110       -1.10170       -1.75700
C          2.94950       -2.34810       -1.84300
N          5.50950       -0.06490        0.05690
C          6.11000        0.53390        1.24420
C          5.92230       -1.46650       -0.15070
C          5.93360        0.71420       -1.08370
C          5.09280        1.74470       -1.53630
C          5.49790        2.60470       -2.56380
C          6.75470        2.45130       -3.14970
C          7.60940        1.44580       -2.71130
C          7.21810        0.59290       -1.67820
H          3.82910       -0.62660       -2.63790
H          2.54420       -2.84440       -0.96880
H          2.98720       -2.87770       -2.79040
H          5.79990       -0.01990        2.15450
H          5.81030        1.60090        1.34560
H          7.22090        0.51020        1.19050
H          5.03880       -2.12360       -0.05090
H          6.62610       -1.80990        0.64220
H          6.38480       -1.70990       -1.12980
H          4.12940        1.90350       -1.07540
H          4.84680        3.40810       -2.88320
H          7.06840        3.12510       -3.93690
H          8.58920        1.33590       -3.16470
H          7.92950       -0.15360       -1.34510
