38

P          1.02150       -0.03200       -0.09230
F         -0.64070        0.16410       -0.06760
F          0.99820       -0.15260       -1.76180
F          0.89790       -1.37650        0.89730
Ni         3.48150       -0.03200       -0.09230
Br         3.35970       -2.50820       -0.32690
C          3.47980        2.02390        0.17150
C          3.43630        2.85860       -0.86460
P          5.94150       -0.03200       -0.09230
C          7.30330        0.59300        0.95740
C          6.38870       -1.77550       -0.21180
C          6.66330       -2.34390       -1.47090
C          6.98000       -3.69560       -1.57370
C          7.05150       -4.49220       -0.43260
C          6.78940       -3.94020        0.82820
C          6.45890       -2.58640        0.93590
C          6.25860        1.22870       -1.38880
C          7.08030        2.38250       -1.26880
C          7.39400        3.15860       -2.38410
C          6.90010        2.81370       -3.63820
C          6.07620        1.69800       -3.77700
C          5.75630        0.91640       -2.66380
H          3.50540        2.41920        1.18130
H          3.40770        2.47590       -1.87770
H          3.43130        3.93180       -0.69730
H          7.27640       -0.00230        1.89660
H          7.09640        1.61660        1.32770
H          8.30290        0.46360        0.50220
H          6.61050       -1.74590       -2.36770
H          7.17620       -4.12980       -2.54800
H          7.30080       -5.54240       -0.51480
H          6.85610       -4.56020        1.71250
H          6.25760       -2.17360        1.91740
H          7.54940        2.70420       -0.35570
H          8.04910        4.01390       -2.27530
H          7.16890        3.40480       -4.50270
H          5.70510        1.42180       -4.75450
H          5.14560        0.03500       -2.80970
