67

P          1.02050       -0.09660       -0.01590
C          0.24140       -1.42780       -1.07120
C         -1.28840       -1.52360       -1.20280
C          0.83170       -1.29750       -2.48780
C          0.66360       -0.48830        1.76250
C          1.23390        0.63170        2.63520
C         -0.84490       -0.58100        2.06260
C          0.23120        1.36880       -0.77340
Ni         3.48050       -0.09660       -0.01590
Br         3.48050       -2.51130        0.92070
C          3.48050        1.90790       -0.79340
C          2.94570        2.96900       -0.19230
P          5.94050       -0.09660       -0.01590
N          6.89720       -1.36090       -0.88000
C          6.34580       -1.42610       -2.24690
C          8.37120       -1.51870       -0.97210
C          9.12810       -1.36090        0.31330
N          8.97540       -0.02310        0.89990
C          9.06820        1.26100        0.18320
C          8.03600        1.52500       -0.97830
N          6.57710        1.45550       -0.68020
C          6.18330        2.61400        0.16190
N          6.46980       -0.77050        1.61310
C          5.67230       -1.61450        2.49180
C          7.17040        0.23350        2.44200
C          8.65150        0.01070        2.32470
H          0.61210       -2.39530       -0.66860
H         -1.73170       -0.60390       -1.62700
H         -1.80530       -1.79010       -0.27750
H         -1.52930       -2.36010       -1.89690
H          0.47310       -0.37940       -2.99650
H          0.53740       -2.16280       -3.11880
H          1.94250       -1.27060       -2.44990
H          1.13710       -1.44200        2.06090
H          0.75260        1.60840        2.37710
H          2.32980        0.72360        2.48600
H          1.03810        0.42630        3.70380
H         -1.38630        0.31560        1.68590
H         -1.02480       -0.65880        3.15370
H         -1.27280       -1.50110        1.65370
H         -0.87020        1.25010       -0.69410
H          0.51000        1.51530       -1.83120
H          0.45770        2.27590       -0.18870
H          3.95190        2.04280       -1.76160
H          2.46120        2.88700        0.77110
H          2.99490        3.93560       -0.68790
H          5.23510       -1.47590       -2.23460
H          6.70260       -2.33140       -2.78260
H          6.64410       -0.52850       -2.83580
H          8.84800       -0.93110       -1.77010
H          8.56470       -2.56400       -1.30870
H         10.20470       -1.57200        0.15020
H          8.73990       -2.15400        0.99700
H         10.09330        1.35310       -0.22350
H          8.97810        2.08140        0.92270
H          8.23160        0.95150       -1.88340
H          8.26450        2.55060       -1.33340
H          5.92870        3.46820       -0.50110
H          6.99270        2.97420        0.83080
H          5.33470        2.39090        0.82640
H          4.71000       -1.10490        2.72760
H          6.15470       -1.79070        3.47870
H          5.67320       -2.64980        2.11020
H          6.90410        1.25350        2.15080
H          6.91970        0.19620        3.52990
H          8.91360       -0.95620        2.81690
H          9.22900        0.79070        2.86190
