51

P          1.07700       -0.05620       -0.03030
Cl        -0.91990        0.45020        0.20320
Cl         1.01170        0.50100       -2.02970
Cl         0.70900       -2.00250        0.60240
Ni         3.53700       -0.05620       -0.03030
Br         3.34560       -2.24850       -1.19530
C          3.28700        1.84580        0.79820
C          2.66970        2.82240        0.12880
P          5.99700       -0.05620       -0.03030
C          6.94960       -1.47260       -1.00550
C          6.45980       -1.41850       -2.47990
C          8.50560       -1.52590       -1.10940
C          6.57890       -2.87580       -0.46810
C          6.53310        1.70320       -0.71570
C          6.18320        2.95150        0.13840
C          8.06800        1.81590       -0.86410
C          5.89220        1.94770       -2.09060
C          6.32080       -0.39980        1.84870
C          5.67550       -1.71340        2.35870
C          7.82740       -0.44520        2.17420
C          5.71570        0.67190        2.77200
H          3.62430        2.10260        1.78750
H          2.29720        2.66450       -0.87130
H          2.55270        3.79920        0.59040
H          6.96840       -0.62220       -3.04270
H          5.37040       -1.27940       -2.57420
H          6.72810       -2.34010       -3.04060
H          8.98470       -0.73320       -1.68270
H          8.79030       -2.43130       -1.69490
H          9.03570       -1.63850       -0.15790
H          5.53530       -2.99380       -0.17020
H          7.22410       -3.15300        0.38360
H          6.79170       -3.67480       -1.21150
H          6.66580        2.96530        1.12420
H          5.13000        3.17840        0.18660
H          6.57510        3.86370       -0.35840
H          8.60150        1.64410        0.08330
H          8.37100        2.82840       -1.22220
H          8.43990        1.17060       -1.65370
H          4.78520        1.87880       -2.04840
H          6.25440        1.26870       -2.87320
H          6.16440        2.96300       -2.48600
H          6.12760       -2.63570        2.00330
H          4.59050       -1.73000        2.12960
H          5.80270       -1.80480        3.46120
H          8.30740       -1.31520        1.71400
H          8.00140       -0.58270        3.26330
H          8.34180        0.48830        1.88520
H          4.61890        0.60880        2.75660
H          6.07850        1.68330        2.58180
H          5.99000        0.47670        3.83360
