97

P          0.92400       -0.02260        0.06100
C         -0.17550       -0.95330        1.22230
C         -1.29560       -0.44510        1.91660
C         -1.80240       -1.12600        3.04550
C         -1.19740       -2.31400        3.49700
C         -1.60260       -2.98350        4.78500
C         -0.15370       -2.86290        2.75510
C          0.33070       -2.20290        1.62720
C          0.62860        1.71230        0.59480
C          0.36550        2.00350        1.94920
C         -0.01000        3.28380        2.35250
C         -0.10940        4.32100        1.42110
C         -0.57930        5.68260        1.84490
C          0.23230        4.07250        0.08480
C          0.60480        2.78330       -0.32110
C          0.26430       -0.58080       -1.54730
C         -0.38260        0.30100       -2.42920
C         -0.89030       -0.14100       -3.65130
C         -0.78520       -1.48690       -4.01790
C         -1.32250       -1.96070       -5.33710
C         -0.17810       -2.38770       -3.13220
C          0.33830       -1.93920       -1.90880
Ni         3.38400       -0.02260        0.06100
Br         3.38400        1.34700       -2.13730
C          3.38400       -1.15950        1.88580
C          4.43730       -1.56920        2.60000
C          5.53400       -0.02260        0.06100
N          6.31870        1.11200       -0.04220
C          5.92110        2.54020        0.03880
C          4.73810        2.92810        0.74790
C          3.98390        2.02330        1.66820
C          4.27910        4.25290        0.74240
C          4.99760        5.25850        0.11930
C          4.50000        6.67740        0.13420
C          6.21660        4.94770       -0.46940
C          6.70730        3.62350       -0.50990
C          8.07860        3.47360       -1.11820
C          7.57180        0.63770       -0.07730
C          7.56780       -0.73100       -0.01140
N          6.30220       -1.17830        0.09530
C          5.91710       -2.61420        0.04730
C          6.70960       -3.69500        0.62560
C          8.05640       -3.61150        1.31220
C          6.23600       -5.02760        0.58130
C          5.03770       -5.36470       -0.02840
C          4.51610       -6.77740       -0.01970
C          4.33080       -4.37770       -0.68550
C          4.75350       -3.03800       -0.68010
C          3.97630       -2.16990       -1.61650
H         -1.72960        0.50830        1.65580
H         -2.61750       -0.68960        3.60920
H         -2.43940       -2.45490        5.28660
H         -0.73470       -2.97390        5.48580
H         -1.88750       -4.04050        4.60760
H          0.33060       -3.77650        3.08360
H          1.18770       -2.63650        1.12800
H          0.41250        1.23560        2.70310
H         -0.24910        3.45500        3.39550
H         -0.83030        5.70580        2.92790
H         -1.49880        5.94720        1.27940
H          0.20400        6.44180        1.64430
H          0.18510        4.87180       -0.64710
H          0.84860        2.64360       -1.35910
H         -0.52010        1.33470       -2.19790
H         -1.36980        0.57380       -4.30850
H         -1.76380       -1.12380       -5.92140
H         -2.10880       -2.72590       -5.17200
H         -0.49920       -2.40360       -5.93650
H         -0.10690       -3.43830       -3.38870
H          0.78160       -2.66260       -1.24100
H          2.44880       -1.37380        2.34610
H          5.45890       -1.38240        2.32930
H          4.27220       -2.10820        3.52820
H          4.54760        1.12400        1.93600
H          2.99240        1.81020        1.27390
H          3.86320        2.52660        2.65250
H          3.36810        4.50910        1.27440
H          3.50870        6.76060        0.63050
H          4.39430        7.04790       -0.90710
H          5.21660        7.32660        0.67960
H          6.79490        5.76150       -0.89250
H          8.47730        4.43370       -1.51150
H          8.07930        2.73820       -1.94440
H          8.80270        3.21390       -0.31750
H          8.49000        1.18820       -0.11900
H          8.46140       -1.31910       -0.09270
H          8.49890       -2.62550        1.46240
H          8.77970       -4.22160        0.71550
H          7.99770       -4.06750        2.32070
H          6.81350       -5.82530        1.03970
H          5.19560       -7.46930        0.52220
H          4.38530       -7.14910       -1.05730
H          3.52900       -6.79940        0.49270
H          3.43330       -4.66530       -1.22510
H          2.89920       -2.36870       -1.55290
H          4.30130       -2.43550       -2.64420
H          4.18150       -1.11780       -1.56080
