65

P          1.03500       -0.08380        0.04200
C         -0.14090        0.01820        1.46060
C         -1.45400        0.51880        1.40490
C         -2.23850        0.56710        2.57550
C         -1.71850        0.14800        3.80800
F         -2.46200        0.23440        4.94010
C         -0.43370       -0.37330        3.86450
C          0.32350       -0.46960        2.70090
C          0.78110        1.44010       -0.89500
C          1.21230        2.68040       -0.38680
C          1.00540        3.86070       -1.08990
C          0.36690        3.83900       -2.32650
F          0.15120        4.99110       -3.00670
C         -0.07040        2.60860       -2.86030
C          0.14570        1.41970       -2.14280
C          0.48700       -1.73520       -0.46020
C         -0.88500       -1.94990       -0.71480
C         -1.38310       -3.23450       -0.93120
C         -0.51800       -4.32750       -0.90640
F         -1.01010       -5.57880       -1.08320
C          0.84980       -4.12980       -0.67990
C          1.35300       -2.83770       -0.45510
Ni         3.49500       -0.08380        0.04200
Br         3.49500       -0.56400       -2.50310
C          3.49500        0.31490        2.15470
C          2.66810        1.11390        2.83010
C          5.64500       -0.08380        0.04200
N          6.33940       -1.16830       -0.07460
C          5.83460       -2.50760        0.12170
C          7.75170       -0.89920       -0.03160
C          7.81840        0.57130       -0.33430
N          6.53720        1.05530        0.13740
C          6.36460        2.42240        0.57960
C          7.47240        3.31370        0.60630
C          7.36200        4.60090        1.13990
C          6.14960        5.03610        1.65290
C          5.03490        4.20350        1.59480
C          5.13220        2.91230        1.04990
H         -1.87370        0.86320        0.47400
H         -3.25210        0.94090        2.53790
H         -0.01550       -0.70280        4.81350
H          1.30080       -0.91530        2.78980
H          1.71090        2.74140        0.57260
H          1.33520        4.80450       -0.67500
H         -0.56570        2.59800       -3.81830
H         -0.19980        0.48420       -2.56980
H         -1.58570       -1.12840       -0.71070
H         -2.44470       -3.38150       -1.09340
H          1.51170       -4.98410       -0.64880
H          2.40330       -2.70560       -0.23660
H          4.36860       -0.03020        2.69850
H          1.84410        1.61880        2.36180
H          2.84820        1.30950        3.88240
H          4.84010       -2.50060        0.61260
H          6.51150       -3.02160        0.85070
H          5.86720       -3.08790       -0.81680
H          8.36250       -1.48920       -0.74370
H          8.10330       -1.06790        1.01490
H          7.82600        0.70260       -1.44190
H          8.73260        0.99730        0.11940
H          8.44950        3.04770        0.23900
H          8.23480        5.24520        1.15780
H          6.08320        6.02720        2.08610
H          4.08970        4.55570        1.98260
H          4.26000        2.30750        1.01280
