43

P          0.93970       -0.03630        0.07100
C          0.12940        0.02920        1.75020
C         -1.40120       -0.05140        1.86420
C          0.73260       -1.10550        2.59910
C          0.60010        1.55890       -0.80490
C          1.18310        1.46640       -2.21560
C         -0.90180        1.85710       -0.93860
C          0.23890       -1.59700       -0.56900
Ni         3.39970       -0.03630        0.07100
Br         3.39970        2.24930        1.28940
C          3.39970       -1.93350       -0.94040
C          2.98300       -3.07830       -0.40530
N          5.49970       -0.03630        0.07100
C          6.23010        1.07290        0.44290
C          7.62510        1.08830        0.40920
C          8.31410       -0.04920        0.02480
F          9.66920       -0.04840       -0.00800
C          7.60290       -1.17180       -0.32890
C          6.20340       -1.15350       -0.32160
H          0.46760        0.97880        2.21890
H         -1.78780       -0.98990        1.43270
H         -1.92730        0.80440        1.43080
H         -1.67710       -0.02970        2.94490
H          0.40450       -2.10380        2.24390
H          0.42040       -1.01210        3.66070
H          1.84430       -1.07000        2.57170
H          1.07260        2.40960       -0.27790
H          0.70450        0.63630       -2.78220
H          2.27780        1.29450       -2.17460
H          0.99900        2.41310       -2.76900
H         -1.44910        0.98940       -1.36620
H         -1.07380        2.73650       -1.59480
H         -1.32520        2.15450        0.03000
H         -0.86580       -1.49340       -0.61270
H          0.47060       -2.47030        0.06020
H          0.59040       -1.76600       -1.60560
H          3.73870       -1.93270       -1.97180
H          2.61550       -3.12160        0.61150
H          2.99780       -3.98160       -1.01040
H          5.78970        1.99690        0.72480
H          8.16390        1.99060        0.66740
H          8.12950       -2.07910       -0.62590
H          5.73210       -2.07200       -0.59800
