105

P          1.03450        0.01130        0.09320
C          0.18470        1.75450        0.63890
C         -1.35830        1.76110        0.68030
C          0.62570        2.34520        2.03140
C          0.61790        2.93420       -0.26580
C          0.56180       -0.24800       -1.80730
C          1.16460        0.68900       -2.89950
C          0.98870       -1.65460       -2.27350
C         -0.96560       -0.18260       -2.03080
C          0.30200       -1.23360        1.37060
C          0.33130       -1.40700        2.98890
C         -0.32340       -0.25270        3.71880
C         -0.49050       -2.67590        3.33150
C          1.68740       -1.56940        3.71870
Ni         3.49450        0.01130        0.09320
Br         3.49450        2.03860       -1.51870
C          3.49450       -1.67160        1.43120
C          2.94080       -2.89410        1.24770
P          5.95450        0.01130        0.09320
C          6.79140        1.75140       -0.24080
C          6.82200        2.72400       -1.52340
C          5.84450        3.93570       -1.71690
C          5.41390        4.61100       -0.40970
C          5.17410        3.62240        0.73610
C          6.40870        2.72880        0.93030
C          7.04900       -0.63010        1.60860
C          6.94960        0.07560        3.01920
C          5.65150       -0.26810        3.74610
C          5.65040       -1.79450        4.05620
C          6.04860       -2.72220        2.85900
C          7.16670       -2.14910        1.97790
C          6.41100       -1.09740       -1.45470
C          7.64060       -1.05890       -2.21630
C          8.74160       -0.04950       -2.05170
C          7.95470       -2.05470       -3.19910
C          7.11750       -3.13190       -3.45180
C          7.46010       -4.25570       -4.39400
C          5.94440       -3.18890       -2.76630
C          5.61270       -2.24110       -1.80000
C          4.42750       -2.61560       -1.07050
H         -1.74790        0.98160        1.35270
H         -1.84450        1.66950       -0.28370
H         -1.72700        2.74390        1.05790
H         -0.05810        2.14040        2.85540
H          0.39270        3.43630        2.11400
H          1.71650        2.29280        2.23990
H          0.28040        2.85020       -1.29030
H          1.69400        3.13980       -0.14730
H          0.16080        3.90230        0.04320
H          2.23480        0.48960       -3.06940
H          0.98770        1.76020       -2.78660
H          0.72220        0.48030       -3.89850
H          2.08290       -1.73360       -2.33890
H          0.63940       -1.84050       -3.31840
H          0.57900       -2.45380       -1.63050
H         -1.32220        0.85490       -2.01620
H         -1.51880       -0.84500       -1.33710
H         -1.22940       -0.49110       -3.06920
H          0.57950       -2.21520        0.96060
H         -0.78150       -1.18000        1.13660
H         -1.30620        0.01940        3.29220
H          0.43260        0.52510        3.75330
H         -0.46790       -0.46890        4.79770
H         -1.54140       -2.58480        2.98690
H         -0.50910       -2.85500        4.43140
H         -0.03890       -3.57720        2.86190
H          2.33720       -0.69240        3.52400
H          2.17110       -2.53430        3.54770
H          1.55450       -1.59000        4.82220
H          3.92540       -1.47890        2.34920
H          2.42210       -3.18250        0.34540
H          3.02700       -3.66170        2.01190
H          7.84760        1.48110       -0.09450
H          6.90460        2.24280       -2.50550
H          7.76680        3.29770       -1.35950
H          4.99340        3.70880       -2.35430
H          6.29310        4.71850       -2.36670
H          4.51930        5.26520       -0.56720
H          6.23780        5.26720       -0.07300
H          4.26580        3.00880        0.65510
H          5.00060        4.21640        1.66500
H          6.13160        2.18790        1.81370
H          7.26480        3.40600        1.14000
H          8.07000       -0.39950        1.24840
H          7.16560        1.14300        3.05410
H          7.77170       -0.28200        3.67530
H          4.81670        0.13820        3.14440
H          5.57680        0.26760        4.71970
H          4.67430       -2.10920        4.50110
H          6.41580       -1.94500        4.84390
H          5.27290       -2.98960        2.17210
H          6.30200       -3.72590        3.26040
H          7.35140       -2.78280        1.08890
H          8.07280       -2.24760        2.62100
H          9.10570       -0.04660       -1.01340
H          8.42010        0.92640       -2.39600
H          9.62220       -0.26290       -2.69620
H          8.88670       -2.03090       -3.75380
H          8.43210       -4.09310       -4.89730
H          6.66310       -4.38180       -5.15880
H          7.52530       -5.20650       -3.81270
H          5.31580       -4.07950       -2.94690
H          3.87550       -3.51750       -1.44270
H          3.74640       -1.76860       -1.07920
H          4.89330       -2.90780       -0.11870
