95

P          1.03730       -0.07390       -0.05610
C          0.17650        1.06530       -1.39080
C          0.41610        2.60280       -1.36440
C          1.64310        3.08240       -2.17200
C          1.71600        2.53170       -3.58560
C          1.63310        0.99910       -3.54490
C          0.31290        0.61100       -2.89310
C          0.30760       -1.75320       -0.71390
C          0.59430       -3.12290        0.00630
C         -0.36580       -3.49650        1.13210
C         -1.80450       -3.51670        0.62420
C         -2.15150       -2.14060        0.07590
C         -1.21320       -1.79580       -1.09250
C          0.26840        0.69140        1.59760
C         -1.04290        1.32210        1.77370
C         -2.13450        1.40530        0.76380
C         -1.51050        1.79460        3.03200
C         -0.80450        1.61870        4.20330
C         -1.34030        2.06750        5.54170
C          0.37120        0.91980        4.12540
C          0.86950        0.43960        2.89160
C          1.99580       -0.44790        3.10050
Ni         3.49730       -0.07390       -0.05610
Br         3.49730        2.47420        0.40810
C          3.49730       -2.18910       -0.44150
C          3.12510       -2.68560       -1.62390
C          5.64730       -0.07390       -0.05610
N          6.44580       -0.60600        0.94230
C          6.13960       -1.17150        2.28650
C          4.69400       -1.07570        2.55020
C          6.57580       -2.63900        2.40820
C          6.83540       -0.31690        3.38150
C          7.72250       -0.41580        0.55950
C          7.73390        0.23870       -0.61650
N          6.46370        0.49270       -1.01590
C          6.16680        1.03520       -2.36970
C          5.94160       -0.14670       -3.33230
C          4.93400        1.88990       -2.33090
C          7.30820        1.92780       -2.91770
H         -0.86960        0.98660       -1.26530
H          0.41270        2.98420       -0.32310
H         -0.44400        3.08290       -1.88630
H          2.53500        2.70480       -1.75940
H          1.70690        4.19190       -2.16800
H          2.66860        2.85260       -4.06130
H          0.89020        2.94910       -4.19380
H          2.45990        0.51610       -2.98840
H          1.67710        0.62270       -4.58790
H          0.12560       -0.45680       -3.06190
H         -0.47780        1.11990       -3.49230
H          0.80840       -1.82950       -1.67520
H          1.59590       -3.24760        0.41280
H          0.46750       -3.91890       -0.77020
H         -0.25260       -2.77720        1.96610
H         -0.11250       -4.51800        1.49570
H         -2.49570       -3.78260        1.45220
H         -1.92880       -4.28150       -0.17810
H         -2.06910       -1.41320        0.90120
H         -3.20040       -2.15750       -0.28940
H         -1.58350       -0.90640       -1.61810
H         -1.35410       -2.60510       -1.84660
H         -2.15820        0.54940        0.10120
H         -2.27650        2.42420        0.35090
H         -3.08600        1.11000        1.26460
H         -2.48350        2.26450        3.12010
H         -2.32770        2.56870        5.44310
H         -0.63960        2.77450        6.03360
H         -1.47620        1.18530        6.21160
H          0.88650        0.69780        5.06040
H          2.76830        0.13390        3.64450
H          2.27310       -0.88710        2.14180
H          1.69250       -1.29440        3.76120
H          4.23850       -2.85990       -0.01790
H          2.70350       -2.06680       -2.40080
H          3.38730       -3.71440       -1.87180
H          4.16140       -1.72490        1.86280
H          4.42450       -0.00540        2.38410
H          4.45430       -1.40820        3.58170
H          6.04640       -3.26340        1.66040
H          6.32740       -3.02670        3.42170
H          7.66820       -2.74500        2.25540
H          6.52440        0.75010        3.30430
H          7.94250       -0.35720        3.30710
H          6.56130       -0.67550        4.39800
H          8.58560       -0.72080        1.12630
H          8.64830        0.47960       -1.15040
H          5.10870       -0.79350       -2.98230
H          6.85980       -0.77100       -3.39540
H          5.69970        0.21470       -4.35550
H          4.12620        1.25920       -1.93680
H          4.68140        2.24050       -3.34980
H          5.11120        2.77800       -1.69420
H          8.24800        1.36500       -3.08390
H          7.50860        2.76640       -2.21400
H          7.02670        2.36340       -3.90030
