58

P          0.93210       -0.00980        0.07280
C          0.20730        1.52950       -0.57160
C         -0.94590        1.65750       -1.37000
C         -1.29440        2.91290       -1.89360
C         -0.52680        4.04500       -1.59520
C          0.59070        3.92920       -0.77180
C          0.95680        2.68100       -0.27300
C          0.61820       -0.99490       -1.46440
C          0.52960       -0.47980       -2.78150
C          0.27040       -1.31860       -3.87110
C          0.08040       -2.68550       -3.67710
C          0.14410       -3.21550       -2.39200
C          0.40440       -2.38000       -1.30150
C          0.13300       -0.23600        1.71150
C          0.37430       -1.39690        2.53230
C          1.30370       -2.51900        2.17240
C         -0.28150       -1.50520        3.77230
C         -1.14090       -0.51320        4.22930
C         -1.37830        0.61120        3.44340
C         -0.75000        0.75440        2.20810
Ni         3.39210       -0.00980        0.07280
Br         3.39210        0.30130       -2.49850
C          3.39210       -0.26810        2.20720
C          4.35000       -0.59130        3.08790
N          5.49210       -0.00980        0.07280
C          6.14240       -0.62880       -0.95480
C          7.53030       -0.81730       -0.90490
C          8.26960       -0.24530        0.13790
C          9.75540       -0.41600        0.23370
C          7.60010        0.48820        1.11550
C          6.20910        0.55070        1.08830
H         -1.54100        0.79460       -1.63240
H         -2.15140        3.01160       -2.54640
H         -0.79070        5.01230       -2.00550
H          1.18760        4.80100       -0.53290
H          1.84460        2.61000        0.34440
H          0.67450        0.56880       -2.99290
H          0.21740       -0.90510       -4.87030
H         -0.12060       -3.33360       -4.52100
H         -0.01250       -4.27710       -2.23780
H          0.42630       -2.83710       -0.32940
H          1.85810       -2.35270        1.23420
H          0.74610       -3.47850        2.10880
H          2.06640       -2.62490        2.97560
H         -0.10640       -2.37160        4.40360
H         -1.62740       -0.61690        5.18990
H         -2.05050        1.37980        3.80130
H         -0.96940        1.64300        1.64400
H          2.44840       -0.08900        2.67550
H          5.36950       -0.83170        2.84760
H          4.09400       -0.63000        4.14350
H          5.58370       -1.12200       -1.73530
H          8.01750       -1.41840       -1.66280
H         10.13740       -1.10940       -0.54470
H         10.01360       -0.84000        1.22920
H         10.25450        0.56880        0.12130
H          8.14410        0.98110        1.91210
H          5.70680        1.12960        1.84940
