67

P          1.07150        0.04890       -0.04990
C         -0.31130        1.39570        0.05200
C         -0.43400        2.19910        1.39250
C          0.60510        3.30990        1.57740
C          0.71480        4.24430        0.33850
C          0.78010        3.48750       -1.00030
C         -0.33540        2.45340       -1.09750
C          0.74160       -0.49210       -1.89690
C          1.51580       -1.68510       -2.50140
C          0.92960       -3.05540       -2.08730
C         -0.46970       -3.20830       -2.69500
C         -1.37820       -2.09700       -2.17410
C         -0.74310       -0.69790       -2.38500
C          0.41380       -1.12660        1.22410
C          1.13370       -1.67480        2.32390
C          2.54130       -1.31570        2.66260
C          0.49380       -2.57700        3.20720
C         -0.84240       -2.91770        3.04840
C         -1.57720       -2.34220        2.01480
C         -0.95200       -1.47520        1.13870
Ni         3.53150        0.04890       -0.04990
Br         3.53150       -2.53010       -0.28780
C          3.53150        2.18980        0.14760
C          4.17950        2.93410       -0.75600
N          5.63150        0.04890       -0.04990
C          6.37780        1.10200        0.45200
F          5.83210        2.12310        1.14510
C          7.77250        1.10590        0.40030
C          8.44320        0.05470       -0.19500
C          7.71430       -1.01350       -0.69390
C          6.31920       -1.01390       -0.58610
H         -1.27460        0.88930       -0.04500
H         -0.42340        1.52580        2.27630
H         -1.40950        2.72900        1.38220
H          1.49700        2.79300        1.86960
H          0.38730        3.93940        2.46590
H          1.57390        4.94330        0.43780
H         -0.21120        4.85980        0.30970
H          1.71010        2.96030       -1.16950
H          0.69440        4.22320       -1.82930
H         -0.30690        2.00100       -2.10100
H         -1.29050        3.01720       -1.04130
H          1.13830        0.38500       -2.44150
H          2.59060       -1.54760       -2.35410
H          1.43960       -1.64720       -3.61220
H          0.87960       -3.16310       -0.98410
H          1.55910       -3.87950       -2.48800
H         -0.90530       -4.19300       -2.43790
H         -0.39990       -3.14560       -3.80190
H         -1.55900       -2.34910       -1.13110
H         -2.36840       -2.15440       -2.68200
H         -1.44310        0.08100       -2.03350
H         -0.72190       -0.57330       -3.49220
H          2.96260       -0.56460        1.97870
H          3.17410       -2.22820        2.66030
H          2.55600       -0.87880        3.68680
H          1.02880       -3.00300        4.04880
H         -1.33070       -3.60730        3.72480
H         -2.62410       -2.58550        1.89380
H         -1.60160       -1.05430        0.39400
H          3.16480        2.69650        0.98170
H          4.62020        2.46970       -1.63040
H          4.25220        4.01000       -0.62530
H          8.32820        1.92810        0.83520
H          9.52350        0.06510       -0.25970
H          8.22660       -1.83410       -1.17860
H          5.82730       -1.84480       -1.04030
