61

P          0.97240       -0.05830        0.07640
C          0.64320       -1.19560       -1.32290
C         -0.37830       -2.16750       -1.23870
C         -0.63870       -3.05470       -2.27670
C          0.10630       -2.96960       -3.45310
C          1.10280       -2.00110       -3.57570
C          1.37710       -1.11330       -2.51600
C          0.85670       -0.65880        1.82850
C          1.61750       -0.05310        2.84850
C          1.56410       -0.52890        4.16960
C          0.76570       -1.62070        4.50100
C          0.02390       -2.24960        3.51180
C          0.07740       -1.78420        2.19760
C         -0.42160        1.17020       -0.33330
C         -1.88100        0.69280       -0.26190
C         -2.37260        0.58590        1.18420
C         -2.22920        1.92530        1.92900
C         -0.79200        2.45570        1.85990
C         -0.36240        2.54400        0.39620
Ni         3.43240       -0.05830        0.07640
Br         3.43240       -2.59080        0.61930
C          3.43240        2.04390       -0.37430
C          2.97500        2.93990        0.49470
N          5.53240       -0.05830        0.07640
C          6.39030        1.04770        0.17050
C          5.98890        2.41780        0.62390
C          7.79060        0.90720        0.04650
C          8.36080       -0.32690       -0.16720
C          7.54270       -1.42810       -0.22590
C          6.16220       -1.27860       -0.09400
H         -1.01210       -2.26060       -0.38880
H         -1.42250       -3.79770       -2.16940
H         -0.10820       -3.66410       -4.25540
H          1.65790       -1.93770       -4.49800
H          2.14870       -0.36820       -2.63680
H          2.25420        0.78260        2.63350
H          2.15040       -0.05260        4.94800
H          0.72560       -1.99090        5.51870
H         -0.59290       -3.10680        3.76150
H         -0.51540       -2.33580        1.51930
H         -0.21610        1.41640       -1.39950
H         -2.02910       -0.23670       -0.82970
H         -2.50940        1.46380       -0.77130
H         -1.79950       -0.18710        1.70880
H         -3.43940        0.28450        1.18450
H         -2.53350        1.80820        2.99000
H         -2.89990        2.67610        1.45670
H         -0.10380        1.80360        2.41940
H         -0.74970        3.46310        2.33120
H          0.60820        3.02620        0.30000
H         -1.05920        3.25440       -0.10750
H          3.78260        2.37120       -1.34790
H          2.60560        2.61980        1.45880
H          2.96130        3.99500        0.24680
H          5.18750        2.34130        1.37760
H          5.87040        3.13060       -0.21820
H          6.77920        2.84280        1.28270
H          8.45290        1.76100        0.14090
H          9.43400       -0.43070       -0.26710
H          7.97340       -2.40770       -0.39450
H          5.65650       -2.19350       -0.23550
