63

P          0.93000        0.07120       -0.00580
O          0.40640       -1.04380       -1.19290
C         -0.89750       -1.51240       -0.92770
C         -1.18600       -2.69180       -1.84750
O          0.78670        0.08330        1.69050
C          1.38350       -1.11630        2.14110
C          0.99900       -1.38890        3.58730
C         -0.37510        1.29850       -0.27720
C         -1.21180        1.87040        0.69580
C         -2.16670        2.82730        0.31280
C         -2.30410        3.20380       -1.02830
C         -1.47390        2.64330       -1.99670
C         -0.51560        1.70830       -1.61920
Ni         3.39000        0.07120       -0.00580
Br         3.39000        2.11300        1.58760
C          3.39000       -1.62380       -1.32850
C          2.54260       -2.64790       -1.45540
P          5.85000        0.07120       -0.00580
O          7.30200        0.77910        0.56130
C          6.93750        1.54120        1.70300
C          7.94280        2.63870        2.02150
O          6.08910       -1.34580        0.93070
C          6.05330       -2.52100        0.16710
C          6.82560       -3.60210        0.91260
C          6.30010        0.20120       -1.76900
C          5.32700        0.45860       -2.75270
C          5.69940        0.67560       -4.08450
C          7.04850        0.67720       -4.44630
C          8.02800        0.45110       -3.47920
C          7.65800        0.20670       -2.15310
H         -1.64750       -0.73480       -1.18230
H         -1.01880       -1.84540        0.12610
H         -1.04160       -2.39090       -2.90820
H         -2.23620       -3.02610       -1.71410
H         -0.50590       -3.53730       -1.61790
H          2.49080       -1.02800        2.08520
H          1.04150       -2.00870        1.56290
H          1.30730       -0.54370        4.23600
H          1.51160       -2.31280        3.93450
H         -0.09790       -1.54210        3.67160
H         -1.12750        1.60150        1.73850
H         -2.80930        3.27860        1.05720
H         -3.04380        3.93540       -1.32360
H         -1.57260        2.92700       -3.03620
H          0.11800        1.28770       -2.39260
H          4.28780       -1.74700       -1.91850
H          1.67640       -2.79610       -0.84080
H          2.77650       -3.43780       -2.16480
H          6.83990        0.87170        2.58630
H          6.00510        2.11250        1.54630
H          8.94840        2.21640        2.21140
H          7.60370        3.17820        2.93590
H          7.98580        3.37560        1.19090
H          6.50830       -2.40580       -0.84100
H          5.01030       -2.87860        0.10990
H          7.90090       -3.33420        0.98240
H          6.72680       -4.57160        0.38050
H          6.41680       -3.72150        1.94010
H          4.27940        0.51710       -2.49810
H          4.94420        0.86460       -4.83590
H          7.33590        0.86570       -5.47370
H          9.07480        0.47820       -3.75100
H          8.44530        0.05530       -1.42680
