88

C          0.90100       -0.64300       -0.00200
N          0.84620        0.72860       -0.09240
C          1.66870        1.85730        0.48710
C          1.44210        1.73700        2.01430
C          2.54030        0.89240        2.67000
C          3.83290        1.69230        2.62900
C          4.26110        1.85380        1.16970
C          3.13860        2.38010        0.24250
C         -0.46910        1.00100       -0.28630
C         -1.20920       -0.14090       -0.21570
N         -0.39190       -1.17880        0.02390
C         -0.86210       -2.57650        0.32460
C         -1.44270       -2.65520        1.77050
C         -2.88780       -2.12060        1.91580
C         -3.83660       -2.97050        1.06960
C         -3.42140       -2.89290       -0.40760
C         -1.92180       -3.27680       -0.61950
Ni         2.65840       -1.88140       -0.01350
Br         2.14490       -2.63270        2.41140
C          3.08470       -1.25780       -2.02640
C          2.28160       -0.54780       -2.82000
C          4.41590       -3.11990       -0.02500
N          4.38360       -4.47850        0.13350
C          3.17600       -5.30680        0.17800
C          2.29240       -5.07770       -1.07170
C          2.99130       -5.44090       -2.39640
C          2.06200       -5.19870       -3.58830
C          5.68570       -4.87500        0.06440
C          6.47200       -3.77610       -0.08620
C          7.86630       -3.85930       -0.14820
C          8.44740       -5.12830       -0.06390
C          7.63180       -6.27760        0.05840
C          6.23220       -6.16410        0.13320
N          5.69460       -2.68360       -0.18420
C          6.15150       -1.30620       -0.28900
C          6.74150       -0.98130       -1.62660
C          6.76130       -1.91570       -2.67880
C          7.27560       -1.56590       -3.91760
C          7.77530       -0.29440       -4.13700
C          7.77150        0.64910       -3.10460
C          7.25750        0.30950       -1.85050
H          1.11330        2.76020        0.14340
H          0.45400        1.26760        2.21830
H          1.42350        2.73450        2.49580
H          2.68880       -0.06170        2.12990
H          2.26990        0.67190        3.72230
H          4.63360        1.16280        3.19610
H          3.66330        2.67070        3.13110
H          4.56400        0.88060        0.83140
H          5.15360        2.52570        1.13610
H          3.44620        2.42910       -0.82180
H          3.09470        3.44550        0.58150
H         -0.90110        1.99240       -0.35180
H         -2.28350       -0.17490       -0.27740
H          0.05250       -3.20190        0.30940
H         -0.77330       -2.12400        2.47360
H         -1.47540       -3.72440        2.08050
H         -2.96830       -1.05540        1.62680
H         -3.20790       -2.19240        2.97790
H         -4.89000       -2.62370        1.19500
H         -3.80140       -4.02320        1.43400
H         -3.63250       -1.87670       -0.78530
H         -4.08020       -3.59540       -0.97470
H         -1.65150       -3.21360       -1.69250
H         -1.89460       -4.35790       -0.34800
H          4.04920       -1.54520       -2.42210
H          1.30500       -0.20830       -2.51260
H          2.62350       -0.28480       -3.81710
H          2.59350       -5.06300        1.08360
H          3.44420       -6.38160        0.22720
H          1.98320       -4.01170       -1.11000
H          1.37750       -5.69910       -0.97140
H          3.28610       -6.51280       -2.38610
H          3.90500       -4.82290       -2.53400
H          1.14510       -5.81980       -3.49900
H          2.57670       -5.46830       -4.53550
H          1.76900       -4.12780       -3.64120
H          8.47970       -2.97760       -0.25720
H          9.52350       -5.23230       -0.12210
H          8.08900       -7.25100        0.10170
H          5.61800       -7.04500        0.22920
H          6.87920       -1.10370        0.53070
H          5.28620       -0.66200       -0.17540
H          6.35990       -2.91140       -2.54940
H          7.25810       -2.31180       -4.70830
H          8.16100       -0.03650       -5.11210
H          8.16190        1.64230       -3.28180
H          7.25410        1.05300       -1.05850
