66

P          1.02100        0.09550        0.02080
C          0.17750        1.22110       -1.26500
C         -1.33610        1.25990       -1.52970
C          0.61490        2.69870       -1.11280
C          0.67040       -1.66860       -0.49520
C         -0.82510       -2.04180       -0.58330
C          1.34800       -2.06560       -1.80100
C          0.49940        0.71350        1.72100
C          0.88100        2.15160        2.05670
C         -1.00880        0.54610        1.99980
Ni         3.48100        0.09550        0.02080
Br         3.48100       -1.58490        1.99160
C          3.48100        1.49050       -1.61520
C          3.13990        1.13680       -2.85370
P          5.94100        0.09550        0.02080
N          7.18420        0.27790       -1.29300
C          6.80100        1.03790       -2.49720
C          8.47380       -0.41130       -1.43570
N          6.36740        1.73600        0.66700
C          7.83510        1.96920        0.72940
C          5.74360        2.91320        0.07530
N          6.33950       -1.42230        0.85940
C          6.31380       -2.59360       -0.03930
C          7.52030       -1.36380        1.74620
H          0.62920        0.86640       -2.21040
H         -1.90960        1.68050       -0.69000
H         -1.77200        0.31800       -1.85920
H         -1.51530        1.94800       -2.38860
H         -0.04960        3.26360       -0.44020
H          0.54080        3.22210       -2.09050
H          1.63980        2.82740       -0.73530
H          1.09340       -2.30400        0.31010
H         -1.31960       -1.60180       -1.45610
H         -1.39320       -1.79780        0.32490
H         -0.93740       -3.13620       -0.72600
H          0.97190       -1.45500       -2.64620
H          1.12070       -3.13420       -2.02090
H          2.44670       -1.96410       -1.70590
H          1.02710        0.06360        2.44640
H          0.23760        2.88650        1.55010
H          1.95080        2.35070        1.85550
H          0.68360        2.33660        3.14030
H         -1.63110        1.15260        1.32060
H         -1.26350        0.88260        3.02860
H         -1.32720       -0.50440        1.95230
H          3.74510        2.52440       -1.48630
H          2.84420        0.12470       -3.08920
H          3.14450        1.88770       -3.64060
H          5.73580        1.26980       -2.52440
H          6.98810        0.45920       -3.42820
H          7.37770        1.98310       -2.55330
H          8.58450       -1.29990       -0.81670
H          9.29930        0.30880       -1.27370
H          8.58400       -0.80110       -2.47430
H          8.37680        1.11000        1.16030
H          8.07180        2.84990        1.35850
H          8.26650        2.19610       -0.27670
H          4.67910        2.93430        0.35020
H          5.91990        2.98570       -1.02220
H          6.16030        3.85100        0.50060
H          5.28320       -2.97060       -0.12890
H          6.95910       -3.41790        0.33090
H          6.65790       -2.33900       -1.06370
H          7.39930       -0.54480        2.47780
H          8.47350       -1.21250        1.21470
H          7.61260       -2.30940        2.31570
