44

C          0.90100       -0.64300       -0.00200
N         -0.04740       -0.68830        0.96230
C         -0.04710       -1.45800        2.19350
C         -1.02590        0.15520        0.56800
C         -0.67390        0.68030       -0.66300
N          0.51600        0.16150       -1.01920
C          1.19180        0.40090       -2.28450
Ni         2.65840       -1.88140       -0.01350
Br         1.40080       -3.65310       -1.42340
C          3.70250       -0.41080        1.15680
C          5.00550       -0.14290        0.99430
C          4.41590       -3.11990       -0.02500
N          4.70360       -4.15750       -0.90150
C          4.16670       -4.65030       -2.17500
C          5.89410       -4.66390       -0.54510
C          6.35460       -4.01580        0.53850
N          5.46230       -3.07610        0.91540
C          5.66560       -2.45390        2.23950
C          6.97390       -2.21010        2.73410
C          7.17730       -1.49780        3.92260
C          6.09060       -1.00190        4.63930
C          4.79630       -1.28980        4.21460
C          4.58590       -2.05400        3.05790
H          0.88870       -2.04420        2.28990
H         -0.91680       -2.14770        2.19450
H         -0.13870       -0.76830        3.06020
H         -1.93400        0.36110        1.12080
H         -1.27180        1.36380       -1.25350
H          0.59330        1.09140       -2.91730
H          1.30410       -0.55770       -2.83380
H          2.18880        0.85200       -2.10140
H          3.16480        0.42900        1.58650
H          5.62970       -0.72380        0.32870
H          5.43660        0.74700        1.44230
H          3.48170       -3.96830       -2.68280
H          3.82010       -5.70130       -2.07820
H          4.98970       -4.65190       -2.92680
H          6.41680       -5.45930       -1.06390
H          7.27090       -4.28020        1.04510
H          7.85680       -2.52180        2.19730
H          8.18350       -1.29800        4.27320
H          6.25160       -0.39700        5.52440
H          3.95160       -0.90240        4.76960
H          3.56640       -2.25770        2.75710
