47

C          0.90100       -0.64300       -0.00200
N         -0.36070       -1.16980        0.19210
C         -0.90430       -2.52420        0.44040
C         -0.56390       -3.50840       -0.67040
C         -0.54900       -3.04620        1.83260
C         -1.21440       -0.12790        0.17530
C         -0.51800        1.01640       -0.00820
N          0.79520        0.73070       -0.11450
C          1.72340        1.86300       -0.33070
C          2.79170        1.94590        0.74540
C          2.23880        1.90130       -1.76290
Ni         2.65840       -1.88140       -0.01350
Br         2.29250       -2.06010       -2.47420
C          2.76260       -1.56590        2.09580
C          1.91710       -0.81460        2.81610
N          4.37500       -3.09110       -0.02470
C          3.83720       -4.46370       -0.12100
C          5.15930       -2.89530       -1.26610
C          5.24740       -3.00960        1.16390
H         -2.02090       -2.45940        0.45060
H          0.52720       -3.70330       -0.69260
H         -0.90110       -3.10290       -1.64580
H         -1.10050       -4.46590       -0.48480
H          0.53640       -3.22680        1.94030
H         -1.09780       -3.99580        2.02460
H         -0.88660       -2.31510        2.60100
H         -2.28760       -0.19150        0.31290
H         -0.96360        2.00600       -0.04910
H          1.14440        2.81790       -0.23750
H          3.42580        1.04000        0.75120
H          2.29910        2.06530        1.73930
H          3.42210        2.84550        0.57640
H          2.88700        1.03790       -1.99250
H          2.79230        2.85300       -1.92560
H          1.36630        1.91150       -2.45520
H          3.51750       -2.01860        2.69450
H          1.07920       -0.27350        2.40850
H          2.06040       -0.73610        3.88990
H          3.17750       -4.57510       -1.00840
H          3.20010       -4.68060        0.76420
H          4.64810       -5.22630       -0.16840
H          4.63700       -3.23580       -2.18110
H          6.10900       -3.47780       -1.24240
H          5.41730       -1.82200       -1.37910
H          4.79100       -3.49390        2.05080
H          5.51700       -1.95210        1.36940
H          6.18990       -3.58160        1.01420
