77

C          0.90100       -0.64300       -0.00200
N          0.79810        0.47780        0.76350
C          1.80230        1.17070        1.57580
C          2.88110        1.79590        0.68850
C         -0.43730        0.97320        0.54530
C         -1.06920        0.17310       -0.36630
N         -0.23500       -0.82400       -0.72040
C         -0.59120       -1.88660       -1.66540
C         -0.59140       -3.24770       -0.98660
Ni         2.65840       -1.88140       -0.01350
Br         2.41690       -2.24790        2.53900
C          2.85890       -1.57720       -2.13240
C          3.15440       -2.59450       -2.93560
C          4.41590       -3.11990       -0.02500
N          4.43410       -4.47870        0.04270
C          3.33950       -5.49800        0.13380
C          3.23610       -6.77680       -0.62730
C          4.30210       -7.54160       -1.39170
C          2.02250       -7.52340       -0.61840
C          0.94030       -7.17230        0.16100
C         -0.34010       -7.96760        0.18260
C          1.11120       -6.17300        1.07320
C          2.30920       -5.43020        1.10000
C          2.66240       -5.02210        2.47250
C          5.82090       -4.92020       -0.04290
C          6.64360       -3.70550       -0.38690
N          5.76640       -2.58310       -0.20430
C          6.30190       -1.22050       -0.09060
C          7.35720       -0.74700       -0.94470
C          8.10910       -1.60210       -1.90860
C          7.74910        0.61820       -0.89220
C          7.18510        1.50810        0.01350
C          7.51820        2.96930        0.00190
C          6.30370        1.02770        0.95380
C          5.87910       -0.31070        0.92090
C          5.01420       -0.71000        2.03210
H          2.23160        0.50100        2.34140
H          1.32250        2.01950        2.10980
H          3.45610        1.02100        0.14370
H          3.57310        2.40590        1.30770
H          2.41430        2.47640       -0.05810
H         -0.83600        1.88320        0.98710
H         -2.06990        0.32400       -0.75320
H          0.10630       -1.87830       -2.52680
H         -1.61620       -1.70290       -2.06190
H          0.42470       -3.49260       -0.61770
H         -0.91270       -4.02130       -1.71570
H         -1.30520       -3.24620       -0.13400
H          2.33950       -0.76870       -2.63880
H          3.29740       -3.59190       -2.53430
H          2.92070       -2.47220       -3.99790
H          5.35870       -7.31960       -1.30090
H          4.04080       -7.69260       -2.45310
H          4.33800       -8.55540       -0.91540
H          1.94980       -8.43680       -1.20700
H         -0.31220       -8.84560       -0.48940
H         -1.17790       -7.30710       -0.12380
H         -0.54920       -8.32470        1.21960
H          0.36710       -6.04020        1.83920
H          1.78350       -4.63150        3.02730
H          3.62960       -4.47830        2.51330
H          2.89550       -5.95640        3.02500
H          6.02040       -5.58080       -0.86410
H          6.10390       -5.37700        0.92910
H          6.88970       -3.77040       -1.46440
H          7.54430       -3.68040        0.26630
H          8.66160       -2.38390       -1.34250
H          8.90010       -1.04340       -2.44850
H          7.42450       -2.03760       -2.65900
H          8.50090        0.98780       -1.57800
H          8.21060        3.22170       -0.82680
H          7.96250        3.27930        0.96910
H          6.57370        3.53700       -0.15790
H          5.93290        1.71080        1.70740
H          4.79800        0.09180        2.77610
H          5.46630       -1.56430        2.58930
H          4.12430       -0.92470        1.47690
