90

P          1.27500        0.00000        0.00000
N          0.48460        1.60970       -0.28270
C          0.84000        2.57270        0.81900
C          2.35980        2.75840        0.90630
C          0.25020        3.99540        0.64950
C         -0.93940        1.57510       -0.65060
C         -1.51450        0.23620       -0.36490
C         -3.05600        0.26530       -0.54380
C         -0.87270       -0.80660       -1.33520
N          0.63620       -0.82450       -1.44140
C          1.07470       -2.26330       -1.44910
C          0.43290       -3.09500       -2.58590
C          2.58970       -2.42600       -1.57400
N          0.21230       -0.41420        1.46540
C          0.11970       -1.82510        2.00840
C          1.42170       -2.52560        2.31620
C         -0.70310       -1.88640        3.34480
C         -1.21760       -0.06480        1.12070
Ni         3.73500        0.00030       -0.00050
Br         3.57330        1.27570       -2.13160
C          3.93630       -0.90130        1.84450
C          4.23770       -0.21310        2.94410
P          6.19500        0.00070       -0.00090
N          7.31610       -0.59590        1.28800
C          6.96930       -1.97160        1.70070
C          8.76160       -0.38730        1.47160
C          9.26670        0.86010        0.86600
N          8.99270        0.94270       -0.56970
C          9.06400       -0.09760       -1.63220
C          8.18210       -1.35170       -1.42020
N          6.71000       -1.15650       -1.26100
C          6.00430       -1.03170       -2.52030
N          6.34380        1.76670       -0.39030
C          5.96220        2.61900        0.73870
C          7.28420        2.38270       -1.37080
C          8.75750        2.30130       -1.01610
H          0.49470        2.18220        1.80250
H          2.75460        3.16450       -0.04920
H          2.85340        1.80380        1.14200
H          2.63320        3.45760        1.72580
H          0.53510        4.42380       -0.33260
H          0.63820        4.66270        1.45250
H         -0.84740        4.04550        0.77290
H         -1.06420        1.85440       -1.71530
H         -1.53670        2.30020       -0.05920
H         -3.33640        0.55460       -1.57530
H         -3.52160        0.98450        0.16750
H         -3.49280       -0.73570       -0.32950
H         -1.26620       -0.62910       -2.35890
H         -1.29220       -1.77630       -0.98210
H          0.77280       -2.75460       -0.50790
H          0.72260       -2.69830       -3.57830
H         -0.67280       -3.13730       -2.53070
H          0.76910       -4.15300       -2.50450
H          2.92130       -2.01220       -2.54480
H          2.86070       -3.50350       -1.52630
H          3.12490       -1.94760       -0.73970
H         -0.40830       -2.48510        1.28400
H          1.96100       -1.98180        3.11740
H          1.98460       -2.67580        1.38500
H          1.21810       -3.55160        2.70660
H         -0.23420       -1.26400        4.13230
H         -0.77010       -2.93480        3.71840
H         -1.76350       -1.57180        3.27280
H         -1.55080        0.76120        1.78730
H         -1.92440       -0.89050        1.33760
H          3.86750       -1.97220        1.91850
H          4.37360        0.85930        2.91210
H          4.37330       -0.73970        3.88500
H          5.96650       -2.28410        1.37420
H          7.03140       -2.06800        2.80430
H          7.64310       -2.73110        1.25160
H          9.38080       -1.23150        1.12950
H          8.94600       -0.33090        2.56670
H         10.35490        0.98640        1.08470
H          8.73120        1.66620        1.41210
H         10.11890       -0.40360       -1.78590
H          8.72890        0.33230       -2.60050
H          8.56550       -1.96790       -0.59980
H          8.36560       -2.02830       -2.28430
H          6.28690       -1.87080       -3.20070
H          6.21420       -0.06930       -3.01770
H          4.92660       -1.15540       -2.33970
H          4.96160        2.32000        1.07580
H          5.88500        3.68530        0.43630
H          6.64770        2.51650        1.60130
H          7.12440        1.90670       -2.34940
H          7.06380        3.46510       -1.50980
H          9.03450        3.04220       -0.22910
H          9.40440        2.56190       -1.88590
