59

C          0.90100       -0.64300       -0.00200
N         -0.41770       -1.07500        0.00310
C         -0.95690       -2.42040       -0.37060
C         -0.36760       -3.58720        0.42590
C         -1.07330       -3.80690        1.77280
C         -2.55690       -4.11530        1.53340
C         -3.22910       -2.89850        0.89620
C         -2.53150       -2.55170       -0.44200
C         -1.17110        0.01030        0.26720
C         -0.36040        1.11070        0.36560
N          0.91800        0.74280        0.18420
C          2.08970        1.65950        0.21570
C          3.02660        1.23490       -0.90100
C          2.32360        1.46150       -2.25790
C          2.26200        2.95700       -2.52170
C          1.41330        3.64320       -1.43900
C          1.82120        3.22060        0.00350
Ni         2.65840       -1.88140       -0.01350
Br         2.40330       -1.88480       -2.49350
C          2.69510       -1.76000        2.10900
C          1.81080       -1.13640        2.86730
N          4.37500       -3.09110       -0.02470
C          5.22990       -3.09620       -1.10090
F          5.08020       -2.23310       -2.12700
C          6.34830       -3.93360       -1.13310
C          6.58460       -4.80710       -0.08040
C          5.71700       -4.81600        1.00320
C          4.63010       -3.93880        1.02360
H         -0.61570       -2.53250       -1.41680
H          0.72260       -3.45010        0.54820
H         -0.52530       -4.51210       -0.17420
H         -0.97200       -2.91260        2.42280
H         -0.60410       -4.67300        2.27640
H         -3.06060       -4.36880        2.49410
H         -2.65810       -5.00700        0.86760
H         -3.19520       -2.05130        1.60970
H         -4.30260       -3.14130        0.70760
H         -3.01710       -1.66860       -0.91580
H         -2.75350       -3.40900       -1.10970
H         -2.25000        0.03360        0.34610
H         -0.69380        2.11960        0.58290
H          2.59140        1.53370        1.19820
H          3.28150        0.17550       -0.74470
H          3.98730        1.79870       -0.85930
H          1.29030        1.03530       -2.26820
H          2.89610        0.96930       -3.06450
H          1.82730        3.15740       -3.52550
H          3.30570        3.34280       -2.52310
H          0.35100        3.38670       -1.61770
H          1.51820        4.74760       -1.56680
H          1.10500        3.65400        0.73160
H          2.79440        3.72450        0.19130
H          3.50310       -2.22470        2.65690
H          0.94670       -0.60800        2.48120
H          1.94380       -1.12330        3.94920
H          7.02780       -3.90370       -1.97540
H          7.43410       -5.47690       -0.10690
H          5.87310       -5.51120        1.81830
H          3.95580       -4.03630        1.85210
