51

C          0.90100       -0.64300       -0.00200
N         -0.39920       -1.12860       -0.09940
C         -1.06480       -2.45370        0.00150
C         -0.12330       -3.62230        0.24030
C         -2.06530       -2.44270        1.21840
C         -1.20260       -0.04430       -0.13040
C         -0.48850        1.05870        0.05300
N          0.81910        0.74150        0.20650
C          1.69610        1.91330        0.45710
C          1.25350        2.65230        1.75680
C          3.19140        1.65070        0.50770
Ni         2.65840       -1.88140       -0.01350
Br         2.13300       -2.38610       -2.41430
C          2.77760       -1.33890        2.00460
C          3.88230       -1.43210        2.73780
N          4.37500       -3.09110       -0.02470
C          5.26750       -3.04920       -1.08570
C          5.18060       -2.05400       -2.20350
C          6.45740       -3.80300       -1.06090
C          6.75110       -4.61930        0.01790
C          5.85090       -4.69430        1.06060
C          4.66890       -3.93420        1.04360
C          3.65490       -4.30600        2.11080
H         -1.65980       -2.62700       -0.91940
H          0.42750       -3.48480        1.19490
H          0.57100       -3.74440       -0.59960
H         -0.73190       -4.55270        0.32500
H         -1.52930       -2.29910        2.18380
H         -2.64390       -3.38870        1.28370
H         -2.83170       -1.64320        1.16830
H         -2.28440       -0.06440       -0.21480
H         -0.91540        2.04430        0.09420
H          1.54320        2.64080       -0.37600
H          1.37240        2.00440        2.64890
H          0.19020        2.97730        1.72210
H          1.83190        3.59000        1.90270
H          3.45250        0.97410        1.33100
H          3.70810        2.61900        0.70490
H          3.54240        1.26850       -0.46880
H          1.91480       -0.86130        2.46520
H          4.80360       -1.78240        2.29950
H          3.89060       -1.09530        3.76730
H          4.45920       -1.24750       -1.98090
H          4.98520       -2.56760       -3.16840
H          6.15790       -1.52710       -2.29560
H          7.17960       -3.72560       -1.86160
H          7.66800       -5.18750        0.04210
H          6.07160       -5.37470        1.87990
H          3.82560       -5.36070        2.42930
H          2.62870       -4.31750        1.69430
H          3.75380       -3.78610        3.07470
