44

C          1.02400       -0.65300       -0.05500
N          1.04210        0.62720       -0.08580
C          2.26080        1.41120       -0.19220
C          2.25660        2.28660       -1.44400
C         -0.28840        1.17760        0.05600
C         -1.21010       -0.06360        0.02480
N         -0.27560       -1.16300        0.10150
C         -0.61960       -2.54840        0.31890
C         -1.48540       -3.10510       -0.79860
Ni         2.78020       -1.86970       -0.29550
Br         2.90530       -1.89580        2.18880
C          2.43550       -1.71570       -2.40310
C          1.39070       -1.12230       -2.98940
N          4.49560       -3.05820       -0.53040
C          5.13360       -3.10380       -1.74350
C          6.22220       -3.93060       -1.98350
C          6.68040       -4.76830       -0.97770
C          7.80990       -5.71290       -1.25430
C          6.06330       -4.70860        0.27820
C          4.98840       -3.82750        0.49300
H          3.15550        0.74830       -0.23230
H          2.35360        2.05930        0.70630
H          2.19300        1.65400       -2.35310
H          3.19500        2.87850       -1.48460
H          1.40160        2.99430       -1.42690
H         -0.55330        1.87150       -0.76860
H         -0.34190        1.69550        1.03360
H         -1.75700       -0.14100       -0.93530
H         -1.91150       -0.04330        0.88600
H         -1.16870       -2.62550        1.28580
H          0.30580       -3.16200        0.40140
H         -2.42510       -2.52150       -0.89380
H         -1.74840       -4.15810       -0.56470
H         -0.92820       -3.07630       -1.75630
H          3.03830       -2.22660       -3.12780
H          0.61070       -0.60290       -2.46360
H          1.28760       -1.17990       -4.07030
H          4.88140       -2.46960       -2.55470
H          6.69200       -3.91450       -2.96040
H          8.20070       -5.59210       -2.28850
H          7.44570       -6.75720       -1.15690
H          8.64330       -5.53810       -0.54400
H          6.40110       -5.35300        1.07900
H          4.52020       -3.84180        1.45830
