70

P          1.27500        0.00000        0.00000
N          0.26160        1.47850       -0.22090
C          0.80510        2.65550        0.54840
C          0.17210        3.98610        0.11800
C          0.65260        2.53290        2.09030
C         -1.18110        1.34820       -0.14110
C         -1.52920       -0.09480        0.01510
C         -3.07900       -0.20000        0.03120
C         -0.97780       -0.85250       -1.22680
N          0.51030       -1.10780       -1.25120
C          0.60670       -2.64060       -1.09510
C          0.11480       -3.36280       -2.38670
C          1.93310       -3.35180       -0.76960
N          0.56100       -0.43190        1.58690
C          1.10540       -1.69690        2.19690
C          2.62050       -1.68560        2.44470
C          0.42690       -2.05030        3.54350
C         -0.93250       -0.60760        1.37740
Ni         3.73500        0.00030       -0.00050
Br         3.73510        1.70820        1.94670
C          3.73490       -1.41740       -1.61680
C          4.68170       -2.34620       -1.80800
C          5.88500        0.00060       -0.00090
N          6.67070       -0.10930       -1.10790
C          6.30870        0.00320       -2.52360
C          7.94720       -0.08570       -0.68730
C          7.95130        0.02340        0.67720
N          6.67620        0.11160        1.10460
C          6.31250       -0.00150        2.51810
H          1.87600        2.74670        0.28140
H         -0.89310        4.04720        0.42150
H          0.25390        4.12780       -0.97800
H          0.70480        4.82400        0.62290
H         -0.40430        2.50700        2.41240
H          1.13950        3.40100        2.58140
H          1.13750        1.64390        2.51630
H         -1.61020        1.76270       -1.08080
H         -1.62600        1.91560        0.69520
H         -3.50170        0.17110       -0.92920
H         -3.50870        0.40660        0.85630
H         -3.39870       -1.25320        0.16940
H         -1.27870       -0.36150       -2.17670
H         -1.57880       -1.78540       -1.22130
H         -0.05580       -2.96540       -0.26830
H          0.74500       -3.06650       -3.25300
H         -0.93820       -3.16610       -2.65460
H          0.18820       -4.46870       -2.27420
H          2.52770       -3.51610       -1.68310
H          1.73400       -4.39980       -0.45730
H          2.50970       -2.90350        0.04850
H          0.89460       -2.54500        1.53850
H          2.89600       -0.97060        3.24220
H          3.19860       -1.45770        1.53780
H          2.93440       -2.70820        2.76200
H          0.63460       -1.27450        4.30500
H          0.81120       -3.02960        3.90770
H         -0.67060       -2.17720        3.46170
H         -1.43410       -0.07430        2.21320
H         -1.24520       -1.67060        1.42780
H          2.92890       -1.33690       -2.33850
H          5.51860       -2.46000       -1.13300
H          4.62160       -2.99440       -2.67860
H          5.23360        0.21850       -2.65580
H          6.63830       -0.88300       -3.09470
H          6.81450        0.90310       -2.94130
H          8.81970       -0.11730       -1.32870
H          8.82440        0.02390        1.31690
H          7.20500       -0.26730        3.12520
H          5.59860       -0.84950        2.64350
H          5.93940        0.93270        2.94840
