67

C          1.02400       -0.65300       -0.05500
N          0.00270       -0.56820        0.80440
C         -0.45890       -1.33840        1.96950
C         -1.69580       -2.25020        1.68110
C         -0.86030        0.55350        0.49370
C         -0.23480        1.23570       -0.66840
N          0.77270        0.30430       -1.12340
C          0.58120       -0.18730       -2.49230
C          0.35470        0.92010       -3.55290
Ni         2.78020       -1.86970       -0.29550
Br         1.50960       -3.37060       -1.98100
C          3.83500       -0.62380        1.10370
C          3.09220       -0.01880        2.04760
C          4.53640       -3.08650       -0.53600
N          4.63420       -4.46240       -0.70250
C          3.54110       -5.44520       -0.68950
C          3.45970       -6.22050       -2.02400
C          3.58070       -6.40720        0.50980
C          5.97010       -4.67320       -0.77580
C          6.66230       -3.48840       -0.65270
C          8.06730       -3.48650       -0.69960
C          8.74890       -4.69700       -0.87140
C          8.03170       -5.90560       -0.97310
C          6.62870       -5.91190       -0.91830
N          5.82080       -2.44400       -0.48270
C          6.34670       -0.97910       -0.23450
C          5.72010        0.37810       -0.82970
C          4.94190        1.38280       -0.13300
C          4.21580        2.37820       -0.78540
C          4.42000        2.56900       -2.14350
C          5.36890        1.80930       -2.77840
C          5.99490        0.70890       -2.15960
H         -1.01920       -0.62180        2.61540
H          0.25610       -1.51580        2.79180
H         -1.64760       -2.75940        0.69770
H         -2.66300       -1.67550        1.67660
H         -1.82230       -3.00670        2.48490
H         -0.93440        1.27410        1.33920
H         -1.87770        0.18080        0.23400
H          0.26310        2.19210       -0.39770
H         -1.06310        1.45020       -1.37220
H         -0.33750       -0.82280       -2.50240
H          1.44610       -0.78760       -2.81650
H         -0.53120        1.56440       -3.37100
H          0.14740        0.44790       -4.53740
H          1.24230        1.57440       -3.64130
H          4.83020       -0.62930        1.43100
H          2.02420       -0.05610        2.07120
H          3.55140        0.47500        2.89670
H          2.61000       -4.94200       -0.48830
H          4.32490       -6.88780       -2.17080
H          3.43100       -5.50310       -2.87090
H          2.54700       -6.84370       -2.04550
H          4.45660       -7.07880        0.51210
H          2.66410       -7.03740        0.49290
H          3.55800       -5.82560        1.45940
H          8.66780       -2.58500       -0.60780
H          9.81980       -4.71640       -0.92270
H          8.55800       -6.83640       -1.09310
H          6.11580       -6.84750       -0.98430
H          7.41280       -0.91410       -0.55900
H          6.69650       -0.88670        0.81900
H          4.76490        1.44310        0.93420
H          3.50140        3.00270       -0.24300
H          3.85620        3.34930       -2.63940
H          5.61150        2.03710       -3.81200
H          6.72240        0.12470       -2.69410
