74

C          2.25550       -0.02750       -0.10630
N          1.44270        1.09320       -0.07910
C          1.87340        2.50420       -0.01080
C          2.80310        2.97390       -1.11970
C          2.21790        2.88260       -2.51110
C          3.26310        3.38040       -3.50420
C          0.15480        0.61770       -0.06440
C          0.19540       -0.74940       -0.07880
C         -0.97940       -1.52970       -0.04300
C         -2.22100       -0.88550        0.01670
C         -2.28190        0.51080        0.02990
C         -1.10540        1.27880       -0.01540
N          1.47810       -1.17810       -0.14570
C          1.81050       -2.62540       -0.28570
C          1.97640       -3.03650       -1.73760
C          1.79770       -2.08850       -2.75280
C          2.09290       -2.38570       -4.06180
C          2.50120       -3.67280       -4.41080
C          2.59900       -4.66390       -3.44410
C          2.34540       -4.35680       -2.10140
Ni         4.44520        0.01410        0.05680
Br         4.51850       -0.04720       -2.42940
C          4.38710        0.02730        2.16330
C          4.42980       -1.07080        2.91160
P          6.98330        0.00860        0.22910
C          7.95620        0.80140       -1.09590
C          7.73330        0.73390        1.84550
C          8.55950        0.03530        2.78470
C          9.00290        0.67290        3.98400
C          8.66500        2.00550        4.25970
C          7.91510        2.70650        3.33860
C          7.47650        2.07330        2.17720
C          7.56010       -1.67640       -0.40250
C          6.74270       -2.72180       -0.91180
C          7.29130       -3.99190       -1.22490
C          8.64100       -4.27020       -1.00760
C          9.47040       -3.25840       -0.55810
C          8.94630       -1.98400       -0.29360
H          2.50260        2.62800        0.88540
H          0.99140        3.17980        0.03010
H          3.73220        2.36270       -1.07140
H          3.01910        4.05710       -0.92840
H          1.31100        3.51790       -2.58290
H          1.94670        1.82920       -2.73320
H          3.53020        4.43560       -3.27590
H          2.86550        3.32500       -4.53530
H          4.18410        2.76150       -3.43190
H         -0.96400       -2.60750       -0.05030
H         -3.14180       -1.45640        0.05440
H         -3.24460        1.00930        0.07790
H         -1.26380        2.33890       -0.00430
H          0.97680       -3.25200        0.06940
H          2.67910       -2.91590        0.32980
H          1.47210       -1.08500       -2.55940
H          2.03180       -1.56770       -4.76140
H          2.77580       -3.92570       -5.41660
H          2.92960       -5.64700       -3.75380
H          2.48490       -5.14140       -1.36740
H          4.18680        0.90410        2.73520
H          4.50720       -2.05460        2.50570
H          4.31700       -0.97320        3.98830
H          7.72020        1.87720       -1.05410
H          7.53140        0.49380       -2.07610
H          9.05150        0.66230       -1.06610
H          8.85020       -0.99070        2.61380
H          9.59960        0.14530        4.71560
H          8.97460        2.51550        5.16750
H          7.65130        3.74940        3.50070
H          6.91340        2.66510        1.52640
H          5.68770       -2.60770       -1.07910
H          6.66800       -4.78360       -1.61860
H          9.05200       -5.26100       -1.19480
H         10.52620       -3.46870       -0.40130
H          9.65680       -1.24970        0.02550
