33

C         -0.21140       -1.29820        0.02720
N         -0.78860       -0.34650        0.80230
C         -1.73550       -0.44050        1.91170
C         -0.30210        0.85080        0.39520
Cl        -0.69470        2.42790        1.07910
C          0.53580        0.65930       -0.65800
Cl         1.38200        1.94960       -1.52030
N          0.58610       -0.66270       -0.93590
C          1.31380       -1.21210       -2.07700
Ni        -0.49020       -3.48260       -0.01010
Br        -2.29960       -3.21880       -1.84430
C          1.01190       -3.70160        1.51260
C          1.66110       -2.65880        2.04360
N         -0.72860       -5.58530        0.02660
C          0.19140       -6.48240        0.51570
C          0.01250       -7.86800        0.44450
C         -1.11640       -8.38460       -0.16220
C         -2.05400       -7.51020       -0.68130
C         -1.83980       -6.13060       -0.60010
H         -2.02680       -1.48210        2.12320
H         -2.64290        0.16320        1.67260
H         -1.28570        0.02010        2.82120
H          1.80540       -0.39930       -2.66320
H          0.59500       -1.69790       -2.76740
H          2.10610       -1.91290       -1.76000
H          1.32940       -4.60840        1.96850
H          1.49610       -1.63720        1.74630
H          2.40590       -2.82640        2.81760
H          1.12090       -6.22400        0.94930
H          0.76330       -8.53870        0.84560
H         -1.25940       -9.45540       -0.23250
H         -2.94980       -7.89600       -1.14970
H         -2.61980       -5.53590       -1.00700
