43

C         -0.15820       -1.19780       -0.00610
N          0.22810       -0.40270        1.07970
C          0.48130       -0.63410        2.50080
C          0.33950        0.86910        0.62950
Cl         0.77350        2.29750        1.58310
C          0.06590        0.90630       -0.68500
Cl         0.10790        2.39760       -1.64770
N         -0.22850       -0.34620       -1.11210
C         -0.46700       -0.55730       -2.54720
Ni        -0.49020       -3.48260       -0.01010
Br        -2.98460       -3.13080        0.59170
C          1.58050       -3.77470       -0.50950
C          2.41880       -2.76280       -0.74090
C         -0.78080       -5.80230        0.00100
N          0.14730       -6.86940        0.04920
C          1.60650       -7.00350        0.20040
C         -0.58860       -8.02630       -0.02870
C         -0.11260       -9.46970       -0.02050
C         -1.90280       -7.72640       -0.08920
C         -3.05240       -8.70920       -0.15520
N         -2.03270       -6.39070       -0.05510
C         -3.37290       -5.82800       -0.14670
H          0.28870       -1.66560        2.81990
H         -0.16040        0.06210        3.09780
H          1.53290       -0.33490        2.73200
H         -0.01260        0.28650       -3.13020
H         -1.53750       -0.43370       -2.80410
H          0.09450       -1.41980       -2.94670
H          2.02260       -4.72280       -0.59910
H          2.12530       -1.73290       -0.65130
H          3.45760       -2.96270       -0.97900
H          2.10500       -6.17070        0.70590
H          2.07720       -7.35670       -0.74950
H          1.82450       -7.78670        0.95860
H          0.98130       -9.61120        0.02170
H         -0.48190       -9.98600       -0.93530
H         -0.56140       -9.99250        0.85500
H         -2.74000       -9.76880       -0.14410
H         -3.63100       -8.54230       -1.08780
H         -3.71300       -8.54350        0.72500
H         -4.17920       -6.54820       -0.34400
H         -3.41990       -5.13150       -1.00950
H         -3.65550       -5.49230        0.86910
