65

C          1.02400       -0.65300       -0.05500
N          0.28750       -0.34430       -1.05610
C          0.58190       -0.68820       -2.42620
C         -0.81450        0.49820       -0.66900
C         -0.75990        0.48960        0.85940
N          0.53580       -0.08690        1.15210
C          1.11100       -0.13530        2.46100
C          0.41730        0.42640        3.55640
C          0.97590        0.43890        4.83350
C          2.23780       -0.10920        5.04680
C          2.93830       -0.67900        3.98030
C          2.38160       -0.69600        2.69320
Ni         2.78020       -1.86970       -0.29550
Br         4.23060        0.26560       -0.50710
C          1.57620       -3.64230       -0.11980
C          0.25560       -3.61690        0.09370
P          4.78960       -3.26190       -0.57060
C          5.67120       -3.12170       -2.19900
C          6.55530       -2.05540       -2.48040
C          7.05080       -1.84420       -3.77580
C          6.65110       -2.66180       -4.83150
C          5.76650       -3.70130       -4.59390
C          5.28880       -3.92830       -3.30510
C          6.29060       -2.59260        0.40460
C          7.38310       -3.46640        0.67170
C          8.49160       -3.06740        1.45640
C          8.57720       -1.77160        1.95980
C          7.53210       -0.90440        1.74050
C          6.40970       -1.32950        1.03790
C          4.32050       -5.03890       -0.54920
C          4.87620       -5.83260        0.46600
C          4.53340       -7.17700        0.59320
C          3.62290       -7.73680       -0.28710
C          3.06470       -6.94780       -1.28970
O          2.23780       -7.42690       -2.04560
N          3.42680       -5.62220       -1.40930
H          1.50010       -1.30840       -2.50240
H          0.74170        0.24710       -3.00820
H         -0.27470       -1.23850       -2.86600
H         -1.79760        0.14140       -1.04220
H         -0.60190        1.52100       -1.05800
H         -1.52800       -0.19940        1.28100
H         -0.89370        1.52280        1.25000
H         -0.55980        0.87070        3.43500
H          0.42870        0.88350        5.65530
H          2.67090       -0.08710        6.03860
H          3.92070       -1.09890        4.15270
H          2.95210       -1.13150        1.88830
H          1.94360       -4.62390       -0.12410
H         -0.32140       -2.70990        0.16110
H         -0.28920       -4.55100        0.20140
H          6.85360       -1.35330       -1.72080
H          7.72340       -1.02160       -3.97010
H          7.00700       -2.48120       -5.83790
H          5.42440       -4.32380       -5.41460
H          4.59470       -4.72600       -3.24950
H          7.38060       -4.48250        0.31280
H          9.29250       -3.75660        1.68760
H          9.42610       -1.43650        2.54570
H          7.56550        0.10520        2.14140
H          5.69130       -0.60520        1.07460
H          5.56960       -5.41860        1.19570
H          4.95990       -7.77430        1.39040
H          3.33330       -8.78050       -0.16610
H          2.93780       -5.05250       -2.13450
