66

P          1.09570       -0.02460       -0.01560
C          0.13800       -1.29440        1.20430
C         -1.41400       -1.40150        1.23590
C          0.55960       -2.78450        0.97630
C          0.50620       -0.99690        2.67920
C          0.60750        1.78250        0.72300
C          1.13940        2.11560        2.13770
C          1.12190        2.97570       -0.12240
C         -0.91890        2.06660        0.79390
C          0.35040       -0.50040       -1.76810
C         -1.20510       -0.37210       -1.81720
C          0.88330        0.45930       -2.84400
C          0.64810       -1.91740       -2.32520
Ni         3.55570       -0.02460       -0.01560
Br         3.55570        1.93010       -1.71480
C          3.55570       -1.64730        1.39490
C          3.68290       -1.83130        2.71270
N          5.65570       -0.02460       -0.01560
C          6.45240        0.32690        1.07600
N          5.92900        1.00110        2.26620
C          4.52790        1.32080        2.43640
C          6.72940        1.69190        3.28160
C          7.86940        0.26810        0.89710
C          8.41130       -0.09760       -0.32000
C          7.57980       -0.36100       -1.39720
C          6.20680       -0.28610       -1.23340
H         -1.85630       -1.88990        0.36960
H         -1.95870       -0.49260        1.47550
H         -1.71750       -2.09800        2.05200
H          0.19290       -3.22640        0.05680
H          0.11800       -3.45490        1.74880
H          1.60870       -3.01260        1.03300
H         -0.15570       -0.22820        3.10290
H          1.54670       -0.69510        2.80970
H          0.31120       -1.86510        3.34970
H          2.21670        2.12310        2.14680
H          0.78090        1.52440        2.97090
H          0.84460        3.14910        2.43410
H          2.20130        3.12050        0.00280
H          0.72730        3.94810        0.25150
H          0.79860        2.95290       -1.17120
H         -1.45250        1.42520        1.48970
H         -1.39900        2.14140       -0.19250
H         -1.11930        3.07810        1.21490
H         -1.60960        0.45440       -1.24400
H         -1.72240       -1.28400       -1.50520
H         -1.59160       -0.25670       -2.84970
H          0.67270        1.51020       -2.62060
H          0.38860        0.27380       -3.82500
H          1.95650        0.27620       -3.01600
H          0.08530       -2.71350       -1.84140
H          1.72750       -2.14720       -2.35950
H          0.24180       -1.99700       -3.36480
H          3.57370       -2.56540        0.82050
H          3.76440       -1.06140        3.44790
H          3.70620       -2.86210        3.07280
H          3.89690        0.88500        1.68730
H          4.37660        2.42440        2.38200
H          4.16450        0.99820        3.43270
H          7.81030        1.61510        3.17580
H          6.45150        1.32750        4.28970
H          6.50770        2.78770        3.24690
H          8.57560        0.54270        1.65420
H          9.48750       -0.12790       -0.43880
H          8.01040       -0.63220       -2.35360
H          5.56100       -0.51770       -2.06750
