29

N         -1.43600       -0.03850       -0.07430
C         -0.82250        1.14530        0.15120
C          0.57830        1.24670        0.13310
C          1.35150        0.09900       -0.01990
C          0.72330       -1.13020       -0.20070
C         -0.67330       -1.18280       -0.29910
Ni        -3.47560       -0.20170       -0.28210
Br        -3.17340       -1.19080       -2.65660
C         -3.72650        0.61930        1.68910
C         -2.72650        0.98950        2.50060
N         -5.54160       -0.27130       -0.45160
C         -6.09230       -1.15080       -1.37440
C         -7.45560       -1.14890       -1.66920
C         -8.27570       -0.22310       -1.03990
Cl        -9.97140       -0.11090       -1.46930
C         -7.73060        0.63950       -0.09480
C         -6.37010        0.58200        0.20420
H         -1.41030        2.04610        0.23990
H          1.06280        2.20840        0.24030
H          2.43410        0.16450       -0.00580
H          1.32210       -2.03040       -0.28430
H         -1.15780       -2.13660       -0.43810
H         -4.68490        0.69100        2.17030
H         -1.69180        0.90050        2.26650
H         -2.91670        1.37820        3.49090
H         -5.49660       -1.89200       -1.88670
H         -7.86630       -1.83650       -2.39980
H         -8.34560        1.38860        0.38200
H         -5.99770        1.35090        0.83360
