29

N         -1.45660       -0.06570       -0.15040
C         -0.77840       -1.18190        0.25630
C          0.60060       -1.12910        0.50010
C          1.28570        0.06270        0.26940
C          0.58460        1.18670       -0.17110
C         -0.80450        1.11270       -0.34370
Ni        -3.47560       -0.20170       -0.28210
Br        -3.17410       -0.97670       -2.73500
C         -3.72600        0.44150        1.75410
C         -2.71160        0.85580        2.51570
N         -5.50360       -0.44530       -0.44940
C         -6.37260        0.36700        0.22900
C         -7.75510        0.16850        0.14980
Cl        -8.86210        1.26570        0.95530
C         -8.24640       -0.91090       -0.57950
C         -7.35970       -1.73640       -1.26400
C         -5.99020       -1.46350       -1.22040
H         -1.31490       -2.09970        0.46820
H          1.13430       -1.99630        0.87540
H          2.35580        0.11690        0.44000
H          1.11330        2.11000       -0.36530
H         -1.35690        1.97960       -0.66920
H         -4.68770        0.35020        2.24230
H         -1.69670        0.89500        2.15190
H         -2.88590        1.10330        3.55810
H         -6.00980        1.22060        0.77960
H         -9.31000       -1.10970       -0.61690
H         -7.72770       -2.59640       -1.80940
H         -5.32350       -2.14480       -1.72140
