41

N         -1.45970       -0.07600        0.03910
C         -0.69950        0.63220       -0.85650
C          0.70610        0.59490       -0.79480
C          1.33310       -0.12940        0.22670
C          2.83530       -0.27450        0.28420
C          0.53440       -0.76790        1.18310
C         -0.86260       -0.75680        1.05340
Ni        -3.47560       -0.20170       -0.28210
Br        -3.72380        1.94730        1.14200
C         -3.26960       -1.98570       -1.46420
C         -2.19120       -2.76740       -1.51010
N         -5.57230       -0.26090       -0.63930
C         -6.32270        0.92230       -0.71270
C         -5.77630        2.31800       -0.82890
C         -7.71300        0.90760       -0.85070
C         -8.39110       -0.27810       -0.98980
C         -9.86900       -0.29440       -1.19780
C         -7.68240       -1.45670       -0.96140
C         -6.29150       -1.46460       -0.77980
C         -5.76320       -2.87990       -0.57640
H         -1.16680        1.15760       -1.68190
H          1.30240        1.09500       -1.55280
H          3.34020        0.21690       -0.57630
H          3.09170       -1.35700        0.23520
H          3.25000        0.13960        1.22620
H          0.99480       -1.30730        1.99900
H         -1.47380       -1.27920        1.77120
H         -4.07390       -2.28060       -2.08250
H         -1.34020       -2.61160       -0.86350
H         -2.21870       -3.66080       -2.13220
H         -4.71290        2.32200       -1.12110
H         -6.03800        2.91800        0.07690
H         -6.23880        2.83630       -1.69310
H         -8.26800        1.83940       -0.89940
H        -10.28550        0.73470       -1.19990
H        -10.35550       -0.87990       -0.39140
H        -10.07940       -0.76090       -2.18300
H         -8.23280       -2.38680       -1.05370
H         -6.55010       -3.57680       -0.22920
H         -4.97030       -2.93580        0.19860
H         -5.58620       -3.40130       -1.54030
