55

P          1.03160        0.05150        0.07970
O         -0.29170        0.22380       -0.98550
C          0.03250        1.31970       -1.86660
O          0.64930       -1.50690        0.67210
C          0.68450       -2.46180       -0.35700
O          0.65450        1.47250        0.96280
C         -0.72260        1.44880        1.31380
Ni         3.49160        0.05150        0.07970
Br         3.49160       -0.30990        2.64440
C          3.49160        0.35150       -2.04930
C          3.55370        1.53650       -2.65130
P          5.95160        0.05150        0.07970
N          7.28440        0.96640       -0.66100
C          6.89830        1.38150       -2.02530
C          7.34300        2.24930        0.08180
O          6.11900       -1.22450       -0.95290
C          6.33620       -2.44270       -0.38620
C          5.57410       -3.50000       -0.90650
C          5.64920       -4.78030       -0.36550
C          6.50570       -5.04290        0.69490
C          7.30690       -4.03170        1.20970
C          7.25110       -2.71820        0.70310
C          8.16970       -1.73460        1.39480
C          9.50360       -2.12490        1.65870
C         10.39470       -1.27870        2.32850
C          9.96130       -0.04260        2.79310
C          8.64350        0.34940        2.58470
C          7.75110       -0.46760        1.86950
O          6.50070       -0.01440        1.65020
H         -0.34140        1.11740       -2.89030
H          1.10670        1.50310       -2.00540
H         -0.41470        2.26610       -1.49240
H          0.00440       -3.29020       -0.06220
H          1.70860       -2.87290       -0.45540
H          0.29310       -2.10030       -1.33130
H         -0.94160        2.23300        2.05880
H         -1.04440        0.47020        1.74240
H         -1.38610        1.70410        0.45630
H          3.44280       -0.54370       -2.66060
H          3.60400        2.45390       -2.07930
H          3.55370        1.57890       -3.73790
H          6.69030        0.51900       -2.68230
H          7.69740        2.00280       -2.49320
H          5.98500        2.02470       -2.01460
H          7.49830        2.14210        1.16170
H          6.37670        2.82320        0.02330
H          8.15340        2.91620       -0.28280
H          4.88750       -3.31010       -1.72000
H          5.03020       -5.57280       -0.76300
H          6.54750       -6.03520        1.12840
H          7.95180       -4.27950        2.04610
H          9.87260       -3.08560        1.32540
H         11.42050       -1.58390        2.49390
H         10.64490        0.61610        3.31620
H          8.33000        1.31130        2.96860
