40

N         -1.39400       -0.16560        0.10990
C         -0.89210        0.32500        1.29940
C          0.47750        0.34590        1.59110
C          1.39110       -0.10830        0.65740
C          0.91810       -0.55750       -0.56600
C         -0.46060       -0.56260       -0.82180
Ni        -3.47690       -0.17170       -0.27510
Br        -3.66530        1.88300        1.24290
C         -3.29080       -1.92320       -1.54820
C         -2.45710       -2.97560       -1.58550
P         -5.87110        0.00380       -0.44600
C         -7.03420        1.37910       -0.74730
C         -6.12190       -1.10730       -1.85070
C         -6.72720       -0.96150        0.98240
C         -6.42330       -0.61720        2.45760
C         -8.23770       -0.75270        0.79050
C         -6.40150       -2.47330        0.87290
H         -1.50960        0.65540        2.10270
H          0.82720        0.71200        2.55040
H          2.45440       -0.09900        0.86620
H          1.61520       -0.87880       -1.32920
H         -0.72750       -0.80350       -1.82170
H         -4.03100       -2.00770       -2.29530
H         -1.70490       -3.18720       -0.84610
H         -2.60340       -3.74790       -2.33850
H         -6.65650        1.89920       -1.66200
H         -6.96990        2.09790        0.08450
H         -8.07050        1.07160       -0.96670
H         -5.68310       -0.66060       -2.76020
H         -7.20080       -1.26250       -2.03140
H         -5.67510       -2.10510       -1.68210
H         -6.90000        0.32750        2.77010
H         -5.33880       -0.68950        2.68840
H         -6.91650       -1.34080        3.14760
H         -8.48040        0.33110        0.89270
H         -8.82350       -1.30190        1.55450
H         -8.55940       -1.08570       -0.21610
H         -5.31630       -2.65720        1.02120
H         -6.73210       -2.90990       -0.08510
H         -6.94250       -3.05290        1.65140
