86

N         -1.39000       -0.11200       -0.05400
C         -0.87020       -0.65720        1.08990
C          0.49520       -0.60960        1.40290
C          1.36200        0.11990        0.59900
C          2.81880        0.25800        0.94670
C          0.83580        0.77160       -0.51050
C         -0.52210        0.63390       -0.82860
Ni        -3.47560       -0.20170       -0.28210
Br        -3.51710        1.22490        1.74930
C         -3.25330        0.47910       -2.28850
C         -4.20470        0.46060       -3.21860
C         -5.61100       -0.29360       -0.51560
N         -6.01760       -1.62350       -0.43190
C         -5.69040       -3.09850       -0.37250
C         -4.66140       -3.65630        0.46480
C         -3.64430       -2.83490        1.21250
C         -4.06090       -2.42140        2.64130
C         -2.25710       -3.54090        1.11390
C         -4.57220       -5.05200        0.60640
C         -5.39230       -5.91560       -0.07180
C         -6.36700       -5.42450       -0.91510
C         -6.57200       -4.05090       -1.07810
C         -7.75580       -3.68630       -2.03140
C         -7.53020       -4.21210       -3.44440
C         -9.12830       -4.21380       -1.50850
C         -7.33610       -1.60810       -0.08990
C         -7.77160       -0.41740       -0.08750
N         -6.85200        0.50110       -0.25170
C         -7.67300        1.77780       -0.10620
C         -8.83960        1.97570        0.89410
C         -9.30160        1.03510        2.07210
C         -9.25880        1.71720        3.44250
C        -10.77270        0.49380        1.88040
C         -9.80440        3.00130        0.69850
C         -9.78280        3.83110       -0.39150
C         -8.84470        3.62200       -1.35980
C         -7.89100        2.58160       -1.26020
C         -7.62170        1.93960       -2.59170
C         -8.94850        1.19350       -2.91970
C         -7.20230        2.87180       -3.71350
H         -1.51140       -1.14800        1.79370
H          0.85980       -1.10410        2.29460
H          3.09050       -0.37040        1.82180
H          3.04160        1.31660        1.20020
H          3.45310       -0.04720        0.08790
H          1.46910        1.40850       -1.11850
H         -0.81090        1.24670       -1.64120
H         -2.33420        0.79140       -2.71940
H         -5.18650        0.10460       -3.01290
H         -3.96980        0.79570       -4.22490
H         -3.55480       -1.92960        0.64860
H         -4.24420       -3.29850        3.29290
H         -4.99400       -1.80560        2.61600
H         -3.27670       -1.79460        3.11410
H         -1.97530       -4.03940        2.06010
H         -1.46460       -2.91410        0.71950
H         -2.22340       -4.26530        0.27790
H         -3.83700       -5.50750        1.25480
H         -5.26980       -6.98190        0.04960
H         -6.99050       -6.15040       -1.40060
H         -7.86080       -2.59610       -2.17560
H         -7.46330       -5.32070       -3.46540
H         -6.60130       -3.77460       -3.85120
H         -8.38370       -3.91220       -4.09490
H         -9.17990       -5.32380       -1.48600
H         -9.95100       -3.85710       -2.17080
H         -9.39150       -3.86640       -0.48960
H         -8.00590       -2.39750        0.12250
H         -8.85010       -0.31020        0.03450
H         -8.62780        0.16820        2.15060
H         -9.98830        2.55540        3.51680
H         -8.24000        2.09450        3.63930
H         -9.52630        0.97600        4.23240
H        -11.55790        1.27180        2.04470
H        -11.01930       -0.30110        2.62160
H        -10.96000        0.07850        0.86900
H        -10.67540        3.12940        1.33540
H        -10.59080        4.53920       -0.56020
H         -9.00370        4.16880       -2.28400
H         -6.85830        1.17390       -2.52850
H         -9.82740        1.87760       -2.96010
H         -9.19290        0.46100       -2.12480
H         -8.87890        0.63750       -3.87130
H         -7.89860        3.06170       -4.54910
H         -7.15600        2.24780       -4.59300
H         -6.12840        3.13450       -3.61010
