45

N         -1.38090       -0.20390       -0.32050
C         -0.62800        0.45490       -1.27200
C          0.75990        0.38310       -1.27810
C          1.41030       -0.23170       -0.24350
Cl         3.15070       -0.42720       -0.31580
C          0.66570       -0.74840        0.80230
C         -0.72720       -0.81280        0.70750
Ni        -3.44120       -0.28800       -0.28550
Br        -3.34220       -2.79180       -0.42010
C         -3.50140        1.86970       -0.20580
C         -4.10010        2.57400        0.79260
P         -5.89350       -0.18860       -0.51140
C         -6.67290        1.39150       -0.71330
C         -6.27450       -1.24580       -2.01520
C         -7.09350       -2.40650       -1.98080
C         -7.02730       -3.35770       -3.00510
C         -6.36540       -3.05700       -4.17090
C         -5.80510       -1.79620       -4.32770
C         -5.67870       -0.94200       -3.22880
C         -6.55010       -1.09060        0.92340
C         -5.68030       -1.61400        1.88150
C         -6.13650       -2.46260        2.89570
C         -7.48810       -2.62070        3.09740
C         -8.38030       -1.94490        2.27370
C         -7.92390       -1.28140        1.12380
H         -1.01070        0.95030       -2.12550
H          1.33070        0.79470       -2.09070
H          1.17370       -1.12390        1.66160
H         -1.27500       -1.29310        1.50250
H         -2.94270        2.49680       -0.86060
H         -4.68190        2.13420        1.55360
H         -4.00850        3.64950        0.96170
H         -6.17630        1.87520       -1.57140
H         -6.39470        1.97680        0.18720
H         -7.74240        1.33110       -0.83290
H         -7.72530       -2.64100       -1.16040
H         -7.48230       -4.33470       -2.91270
H         -6.31860       -3.79900       -4.95030
H         -5.41230       -1.51600       -5.27770
H         -5.09960       -0.04820       -3.29780
H         -4.64090       -1.40800        1.83250
H         -5.45740       -2.98090        3.55680
H         -7.82510       -3.24650        3.90980
H         -9.42140       -1.96180        2.52200
H         -8.63600       -0.90080        0.41620
