33

N          1.06560       -0.06330        0.04110
C          0.61010       -1.46060        0.17130
C          0.58890        0.73960        1.18460
C          0.45230        0.49390       -1.18520
Ni         3.16560       -0.06330        0.04110
Br         3.16560       -1.08510        2.42110
C          3.16560        0.78490       -1.93450
C          3.15320        2.09320       -2.17780
N          5.26560       -0.06330        0.04110
C          5.82360        1.16920       -0.56730
C          5.93710       -0.42500        1.30200
C          5.61220       -1.07860       -0.98440
H         -0.50140       -1.53020        0.17580
H          0.96760       -1.92370        1.10840
H          1.00510       -2.06830       -0.67110
H         -0.52350        0.78260        1.21700
H          0.98720        1.77470        1.11380
H          0.91470        0.32040        2.15260
H         -0.65990        0.44940       -1.13610
H          0.75290       -0.08510       -2.08450
H          0.71490        1.56390       -1.31370
H          3.16460        0.09690       -2.77390
H          3.14930        2.81080       -1.36550
H          3.14890        2.44840       -3.20640
H          5.46830        2.04490        0.01230
H          5.56940        1.32980       -1.63270
H          6.93680        1.17310       -0.52440
H          5.67000        0.30290        2.09660
H          7.04430       -0.40580        1.18710
H          5.68290       -1.45790        1.61730
H          5.15950       -0.86910       -1.97410
H          5.21560       -2.06900       -0.67380
H          6.71470       -1.18110       -1.11880
