30

N         -1.38670       -0.13200       -0.02240
C         -0.62410        0.97850        0.14350
C          0.69140        1.15660       -0.08380
C          1.42420        0.05150       -0.08000
O          2.76380        0.15580       -0.17950
C          3.58650       -0.78090        0.40090
C          0.75830       -1.16610        0.09630
C         -0.63410       -1.24170       -0.00840
Ni        -3.48750       -0.14150       -0.26900
Br        -3.45640       -2.40280        0.92260
C         -3.45710        1.72990       -1.23590
C         -2.48360        2.49680       -1.53960
N         -5.52590       -0.29510       -0.46300
C         -6.44780        0.50060       -1.04690
O         -7.65300       -0.03210       -0.96340
C         -7.52810       -1.15170       -0.29460
C         -6.23970       -1.31750        0.01710
H         -0.87790        1.72400        0.72690
H          1.13740        2.14790       -0.10640
H          4.64510       -0.59160        0.19070
H          3.33850       -1.79410        0.04240
H          3.44070       -0.75860        1.49520
H          1.31230       -2.02990        0.25850
H         -1.03270       -2.18400       -0.10850
H         -4.29560        2.15700       -1.61990
H         -1.68110        2.07900       -1.56320
H         -2.31000        3.41400       -1.93510
H         -6.22470        1.41570       -1.56610
H         -8.29070       -1.84720       -0.02200
H         -5.90500       -2.14430        0.55520
