85

N         -0.67900        1.19300        0.00100
C         -1.05340        0.22980       -0.90270
F         -2.09370        0.44280       -1.74480
C         -0.43120       -1.02580       -0.92170
C          0.59280       -1.30040       -0.02350
F          1.21700       -2.50490       -0.03580
C          0.95490       -0.33990        0.90900
C          0.29490        0.89000        0.92800
F          0.68590        1.76340        1.87720
Ni        -1.69140        3.03290        0.00550
Br        -2.20080        2.42110        2.49930
C         -1.18290        3.11460       -2.04080
C         -1.25590        4.18410       -2.81080
C         -2.72790        4.91650        0.01010
N         -2.11340        6.18350        0.14430
C         -0.76190        6.94770        0.39050
C         -0.27880        8.23120       -0.23220
C         -0.80160        9.09700       -1.41840
C         -1.06330        8.30500       -2.68580
C         -1.79090       10.21960       -1.06480
C          0.92990        8.83390        0.23400
C          1.69920        8.36520        1.24560
C          1.31710        7.20220        1.84400
C          0.15150        6.54500        1.46410
C         -0.12390        5.36920        2.21860
C         -1.42280        5.68050        3.01220
C          0.09440        4.35100        1.11720
C         -3.18020        7.13880        0.24900
C         -4.26760        6.57090       -0.51280
N         -4.17900        5.13490       -0.30640
C         -5.25690        4.24940       -0.84720
C         -5.84690        4.47060       -2.19160
C         -5.39170        5.65480       -3.04380
C         -3.98090        5.28680       -3.46780
C         -6.04960        6.47450       -4.16580
C         -6.81270        3.61790       -2.72450
C         -7.27400        2.54640       -1.98640
C         -6.86430        2.37790       -0.67410
C         -5.91590        3.22990       -0.06000
C         -5.85910        3.06480        1.46290
C         -5.31600        1.71500        1.91800
C         -5.28690        4.25940        2.23220
H         -0.74790       -1.78660       -1.62310
H          1.74150       -0.54560        1.62490
H         -0.80080        2.22550       -2.52630
H         -1.53730        5.13650       -2.39230
H         -1.00850        4.11210       -3.86600
H          0.04450        9.73980       -1.77010
H         -1.89870        7.61790       -2.53580
H         -0.13610        7.74150       -2.93940
H         -1.26770        9.00960       -3.52180
H         -2.84310        9.92310       -0.97940
H         -1.77670       10.99760       -1.86370
H         -1.46450       10.73600       -0.12800
H          1.32310        9.78560       -0.17420
H          2.60930        8.84880        1.54800
H          1.95410        6.82800        2.64500
H          0.60110        5.07550        3.01240
H         -2.21040        6.19930        2.48130
H         -1.16300        6.40860        3.81300
H         -1.88890        4.82140        3.49920
H         -0.46930        3.58800        1.44240
H          1.13450        3.98090        1.07350
H         -0.17720        4.58270        0.06060
H         -2.94680        8.16390        0.00710
H         -3.56520        7.16610        1.29120
H         -3.90280        6.86220       -1.51640
H         -5.24410        7.02300       -0.23470
H         -5.68100        6.36940       -2.28840
H         -4.03050        4.58490       -4.32840
H         -3.54000        4.70310       -2.66090
H         -3.36290        6.16500       -3.70830
H         -7.14150        6.35280       -4.25100
H         -5.51640        6.37700       -5.13420
H         -5.86780        7.56590       -3.93740
H         -7.19890        3.77680       -3.72290
H         -8.01290        1.87980       -2.41290
H         -7.34690        1.58800       -0.11180
H         -6.92920        3.07890        1.80310
H         -4.32610        1.54960        1.48610
H         -5.93700        0.87580        1.55200
H         -5.29820        1.66070        3.03030
H         -4.20660        4.37770        2.08790
H         -5.47890        4.13830        3.32050
H         -5.81820        5.18760        1.91500
