58

N         -1.54930        0.31460       -0.02960
C         -1.18330        1.61750       -0.12980
C          0.15730        1.98940        0.03180
C          1.15610        1.01720        0.31280
N          2.56590        1.36960        0.44470
C          3.07490        2.72810        0.27520
C          3.61770        0.39130        0.71320
C          0.70320       -0.32240        0.43370
C         -0.65090       -0.64520        0.25300
Ni        -3.47560       -0.20170       -0.28210
Br        -3.89830        0.12510        2.25220
C         -3.12480       -0.47300       -2.38580
C         -1.94630       -0.32030       -2.99240
P         -5.75060       -0.71120       -0.58480
N         -6.66640       -1.90860       -1.49430
C         -6.22200       -3.17620       -0.87470
C         -8.12200       -1.84070       -1.53150
O         -6.00050        0.59550       -1.60200
C         -6.21370        1.84660       -1.06760
C         -5.40040        2.91330       -1.51230
C         -5.55880        4.21920       -1.02060
C         -6.54700        4.50230       -0.08910
C         -7.37910        3.48450        0.35440
C         -7.23480        2.14460       -0.10360
C         -8.20290        1.15890        0.46690
C         -9.55490        1.58060        0.58320
C        -10.53100        0.75190        1.12650
C        -10.17820       -0.49750        1.61620
C         -8.85310       -0.92730        1.54660
C         -7.85670       -0.14270        0.94410
O         -6.61680       -0.70120        0.85400
H         -1.92940        2.36880       -0.35250
H          0.35580        3.03790       -0.07930
H          2.32130        3.49810        0.07120
H          3.78860        2.75010       -0.57600
H          3.61260        3.04510        1.19430
H          3.28430       -0.64270        0.85980
H          4.16880        0.67530        1.63500
H          4.33220        0.37640       -0.13740
H          1.34250       -1.15680        0.65450
H         -0.96640       -1.67240        0.34360
H         -3.97880       -0.74820       -2.99630
H         -1.05050       -0.04020       -2.45840
H         -1.87540       -0.47340       -4.06500
H         -5.10580       -3.25510       -0.88520
H         -6.61270       -4.05930       -1.40880
H         -6.53190       -3.23190        0.19910
H         -8.46440       -0.84640       -1.87540
H         -8.57340       -2.13830       -0.57210
H         -8.47950       -2.60600       -2.25240
H         -4.62290        2.73500       -2.23940
H         -4.91620        5.02380       -1.35860
H         -6.67290        5.51150        0.29530
H         -8.13200        3.75620        1.08940
H         -9.87570        2.55360        0.22360
H        -11.56230        1.08370        1.17130
H        -10.93660       -1.14190        2.04020
H         -8.60160       -1.90990        1.92020
