99

P          0.95810       -0.06910        0.05880
O         -0.24440        1.07930       -0.32110
C          0.25620        2.33530        0.13830
C          0.13470        2.64250        1.64240
O          0.40110       -1.33120       -0.96410
C          0.27110       -1.02810       -2.33030
C         -0.18130       -2.31410       -3.04930
O          0.37670       -0.23430        1.68230
C         -1.05450       -0.37030        1.74550
C         -1.59100       -0.08690        3.12760
Ni         3.41810       -0.06910        0.05880
Br         3.75460       -0.77660       -2.31200
C          3.29440        0.20570        2.14910
C          4.29970        0.45170        2.98780
C          5.56810       -0.06910        0.05880
N          6.32580       -1.16220       -0.05470
C          6.07610       -2.70920       -0.09580
C          4.78860       -3.50380       -0.08800
C          3.35520       -3.03860        0.06270
C          2.45060       -3.52710       -1.10390
C          2.74010       -3.57030        1.38140
C          4.76850       -4.92300       -0.16800
C          5.86340       -5.71020       -0.15010
C          7.05970       -5.12300        0.04400
C          7.20160       -3.70880        0.11050
C          8.58050       -3.43570        0.63380
C          9.50080       -2.90150       -0.46330
C          8.38630       -2.90660        2.08800
C          7.67830       -0.59300       -0.08180
C          7.57440        0.90350       -0.10270
N          6.28360        1.13400        0.42210
C          5.84680        2.48290        0.79410
C          4.73090        3.22320        0.21790
C          3.80990        2.74320       -0.96240
C          2.75110        3.79050       -1.45490
C          4.59880        2.38300       -2.22480
C          4.40810        4.49190        0.74580
C          5.14970        5.09320        1.72640
C          6.26270        4.47270        2.21710
C          6.63670        3.19500        1.80250
C          7.90880        2.64230        2.47560
C          9.15180        3.33640        1.86880
C          7.94540        2.81320        4.00840
H         -0.23240        3.14970       -0.43160
H          1.31890        2.39960       -0.04900
H         -0.92170        2.64970        1.96490
H          0.57740        3.64060        1.85020
H          0.73390        1.95400        2.27150
H          1.22990       -0.73250       -2.76310
H         -0.48660       -0.24280       -2.51990
H          0.47950       -3.17680       -2.83390
H         -0.16980       -2.18700       -4.15020
H         -1.20290       -2.60250       -2.72300
H         -1.37480       -1.39500        1.40010
H         -1.63280        0.36090        1.14110
H         -1.21960       -0.82340        3.85640
H         -2.70550       -0.10510        3.11210
H         -1.29240        0.93420        3.45500
H          2.37230       -0.02620        2.64940
H          5.31190        0.61460        2.66870
H          4.09480        0.45680        4.05710
H          3.33520       -1.99100        0.15700
H          2.39630       -4.61820       -1.24320
H          2.76140       -3.14010       -2.08090
H          1.41780       -3.28630       -0.85860
H          2.60430       -4.67620        1.38670
H          1.72390       -3.14130        1.54140
H          3.36740       -3.30630        2.26180
H          3.87260       -5.52600       -0.17640
H          5.77790       -6.78240       -0.18140
H          7.87210       -5.80600        0.15880
H          9.17380       -4.34630        0.90960
H          8.95240       -2.55320       -1.35070
H          9.96610       -3.76960       -0.98090
H         10.31140       -2.25840       -0.07650
H          7.61000       -2.12850        2.22210
H          9.33760       -2.61990        2.57210
H          7.95000       -3.74330        2.68960
H          8.22610       -0.78230       -0.99480
H          8.25340       -0.82760        0.82820
H          7.58550        1.29690       -1.14540
H          8.46270        1.29510        0.38350
H          3.28180        1.84790       -0.62800
H          3.23850        4.68120       -1.89880
H          2.08130        4.18700       -0.66310
H          2.07370        3.34230       -2.21470
H          5.11200        3.27040       -2.64250
H          3.88190        2.01200       -2.99890
H          5.33370        1.58590       -2.04240
H          3.58860        5.10460        0.42310
H          4.86640        6.07440        2.09220
H          6.81430        5.02670        2.96160
H          7.96240        1.54930        2.34930
H          9.13690        4.42970        2.05930
H          9.20580        3.22220        0.76760
H         10.08290        2.91010        2.29830
H          7.99720        3.87700        4.31930
H          8.86650        2.33520        4.40850
H          7.06360        2.33500        4.47940
