52

P          0.90060       -0.00350        0.01050
C         -0.15330        0.12720       -1.55900
C         -1.68760        0.13570       -1.59920
C         -1.91730        0.36670       -3.09700
C         -0.98520        1.51610       -3.42490
C          0.16600        1.37140       -2.42300
C          0.64600       -1.75120        0.55310
C         -0.78460       -2.16900        0.89200
C         -0.60870       -3.66350        1.10100
C          0.18600       -4.03630       -0.14300
C          1.15510       -2.85890       -0.38230
C          0.19650        1.37510        1.08670
C          0.76860        1.52590        2.48610
C          0.04710        2.77070        2.99690
C          0.26110        3.71380        1.82790
C          0.12540        2.83220        0.57560
Ni         3.36060       -0.00350        0.01050
Br         3.36060       -0.26460        2.58730
C          3.36060        0.21320       -2.12850
C          3.95650        1.25820       -2.69660
C          5.51060       -0.00350        0.01050
O          6.72870       -0.00350        0.01050
H          0.17170       -0.73330       -2.18150
H         -2.09250        0.98470       -1.00850
H         -2.20770       -0.78930       -1.32570
H         -2.96660        0.54020       -3.41530
H         -1.54880       -0.53270       -3.64380
H         -1.52460        2.46240       -3.19900
H         -0.67490        1.53630       -4.49330
H          0.11590        2.29040       -1.83750
H          1.16160        1.36770       -2.89930
H          1.19030       -1.86770        1.51760
H         -1.45500       -2.06110        0.03500
H         -1.22150       -1.63570        1.76140
H         -1.56710       -4.22100        1.19660
H          0.00400       -3.83810        2.01210
H         -0.55430       -4.02260       -0.97870
H          0.64890       -5.04660       -0.14260
H          1.10970       -2.61190       -1.46180
H          2.20530       -3.09000       -0.10920
H         -0.86700        1.07430        1.25730
H          1.83880        1.80000        2.41340
H          0.62410        0.64000        3.13950
H          0.45630        3.16560        3.95250
H         -1.03410        2.54960        3.12250
H          1.33010        4.02180        1.88950
H         -0.34420        4.64630        1.82970
H          0.94670        3.12760       -0.09470
H         -0.87810        2.97250        0.10430
H          2.84420       -0.52040       -2.73920
H          4.45750        1.99660       -2.08100
H          3.94290        1.37570       -3.77530
