106

C          0.90100       -0.64300       -0.00200
N         -0.40550       -1.18970       -0.13310
C         -1.08410       -2.56150       -0.29740
C         -2.50730       -2.78050        0.07720
C         -3.39070       -1.81270        0.90180
C         -4.84420       -2.27110        1.15790
C         -2.70800       -1.62190        2.25990
C         -3.15490       -4.01580       -0.23960
C         -2.53370       -5.05700       -0.82930
C         -1.22720       -4.95800       -1.09430
C         -0.46760       -3.78820       -0.81730
C          0.93510       -4.00030       -1.24050
C          1.49370       -5.35830       -0.65640
C          0.87270       -3.83270       -2.79260
C         -1.14850       -0.06920       -0.26300
C         -0.40280        1.06170       -0.05340
N          0.88450        0.76880        0.11330
C          1.76710        2.00020        0.31830
C          1.37070        3.11190        1.22740
C          0.24470        3.23250        2.28180
C         -0.95870        4.08340        1.83480
C         -0.11060        1.98560        3.07180
C          2.13970        4.30690        1.26220
C          3.27400        4.49570        0.52770
C          3.71840        3.49050       -0.27030
C          3.00520        2.27370       -0.40200
C          3.60430        1.34290       -1.38060
C          4.03900        1.96180       -2.74700
C          4.80700        0.64050       -0.73200
Ni         2.65840       -1.88140       -0.01350
Br         2.94980       -1.44440       -2.54970
C          2.41660       -2.24420        2.09180
C          1.71360       -1.45440        2.90160
P          4.66930       -3.29850       -0.02670
O          6.22930       -3.10440       -0.79510
C          7.34950       -3.96340       -0.55940
C          7.33970       -5.32310       -1.28490
C          8.57400       -3.20070       -1.11630
O          5.28490       -3.74850        1.58540
C          5.81540       -2.78380        2.52850
C          6.09260       -3.45900        3.93720
C          7.19630       -2.15940        2.17150
O          4.60410       -4.68620       -1.06240
C          4.15870       -4.52140       -2.37410
C          5.07650       -3.78210       -3.35850
C          3.85920       -5.91590       -2.97600
H         -3.57920       -0.86210        0.41480
H         -4.87640       -3.22020        1.73750
H         -5.37990       -2.39840        0.18900
H         -5.39680       -1.50650        1.73680
H         -2.59550       -2.60880        2.76310
H         -3.31220       -0.95560        2.90640
H         -1.69870       -1.17810        2.15380
H         -4.18060       -4.24730       -0.03440
H         -3.05550       -5.98240       -1.05660
H         -0.81430       -5.85010       -1.54560
H          1.50680       -3.23610       -0.77710
H          1.18340       -6.25740       -1.22930
H          1.19560       -5.50230        0.40470
H          2.56910       -5.43950       -0.59150
H          0.20770       -4.58250       -3.24920
H          1.75800       -3.87760       -3.43620
H          0.45970       -2.81760       -2.98450
H         -2.16000       -0.00190       -0.53240
H         -0.82320        2.03890       -0.15010
H          0.67240        3.84640        3.12420
H         -1.55690        3.60460        1.04810
H         -0.61930        5.07510        1.46670
H         -1.63750        4.27440        2.69720
H         -0.62600        1.22670        2.47200
H         -0.77980        2.26910        3.92020
H          0.81530        1.56830        3.53350
H          1.88660        5.14360        1.91250
H          3.82320        5.42690        0.60350
H          4.63100        3.67830       -0.81730
H          2.73690        0.73610       -1.56450
H          3.65800        2.98960       -2.92570
H          3.71270        1.31580       -3.58840
H          5.14960        2.01470       -2.83390
H          5.61330        1.38450       -0.53240
H          5.22700       -0.13140       -1.40710
H          4.51900        0.17480        0.23270
H          2.92280       -3.09960        2.52350
H          1.22390       -0.56600        2.53710
H          1.65750       -1.68050        3.96150
H          7.49480       -4.17440        0.50510
H          7.34670       -5.21340       -2.37950
H          6.52010       -5.98520       -0.95840
H          8.27920       -5.86840       -1.05540
H          8.41280       -2.96250       -2.19540
H          9.50690       -3.80100       -1.04690
H          8.73790       -2.23940       -0.58850
H          5.07030       -1.97930        2.67930
H          7.12030       -3.90080        3.97300
H          5.47540       -4.24250        4.43520
H          6.00930       -2.64700        4.68700
H          8.00060       -2.92860        2.10890
H          7.54790       -1.50100        3.00190
H          7.18670       -1.56030        1.24650
H          3.28040       -3.96770       -2.24510
H          5.97180       -4.35640       -3.62970
H          5.36700       -2.77940       -3.00110
H          4.51830       -3.64900       -4.30900
H          4.79500       -6.50700       -3.07960
H          3.38960       -5.81330       -3.97570
H          3.17880       -6.53580       -2.36450
