70

P          1.05390       -0.00450       -0.08410
C         -0.10680       -1.23490       -0.74220
C         -1.19120       -1.77960       -0.03330
C         -1.97790       -2.78300       -0.61920
C         -1.68040       -3.25960       -1.90170
C         -0.60420       -2.72620       -2.60860
C          0.17060       -1.71710       -2.03550
C          0.78720       -0.16640        1.69280
C          1.21180       -1.34170        2.33720
C          0.96230       -1.53400        3.69870
C          0.29440       -0.55110        4.43050
C         -0.12210        0.62710        3.79930
C          0.12260        0.82250        2.43330
C          0.54510        1.38170       -1.12730
C         -0.81840        1.72850       -1.17700
C         -1.26890        2.71830       -2.05380
C         -0.36260        3.37690       -2.89270
C          0.99600        3.04300       -2.84460
C          1.45070        2.05000       -1.96490
Ni         3.51390       -0.00450       -0.08410
Br         3.51390        2.32530        1.04720
C          3.51390       -1.93860       -1.02320
C          3.80460       -2.05130       -2.31470
C          5.66390       -0.00450       -0.08410
N          6.53300        0.98690        0.27910
C          6.37420        2.39630        0.69640
C          6.14330        2.49430        2.24260
C          7.61580        3.31680        0.46960
C          7.89980        0.58710        0.07810
C          7.86430       -0.85790        0.02950
N          6.54200       -1.15960       -0.44200
C          6.36330       -2.58320       -0.80330
C          6.72760       -2.73590       -2.29420
C          7.23700       -3.58020       -0.00210
H         -1.43380       -1.44110        0.96320
H         -2.81360       -3.20450       -0.07770
H         -2.27810       -4.04530       -2.34720
H         -0.36280       -3.10000       -3.59680
H          1.01290       -1.33060       -2.59710
H          1.71150       -2.12110        1.77610
H          1.28130       -2.44790        4.18490
H          0.09590       -0.70390        5.48520
H         -0.64480        1.38200        4.37050
H         -0.21950        1.72830        1.95270
H         -1.54040        1.21360       -0.55530
H         -2.32450        2.96280       -2.09640
H         -0.71870        4.13000       -3.58130
H          1.68980        3.54700       -3.50510
H          2.50010        1.77880       -1.95920
H          2.82550       -2.72370       -0.72310
H          4.18260       -1.20700       -2.87360
H          3.55740       -2.97660       -2.83620
H          5.66150        2.86490        0.00460
H          7.07020        2.30280        2.81950
H          5.43070        1.74580        2.62880
H          5.78670        3.52000        2.48630
H          8.46700        3.06330        1.14330
H          7.35440        4.37270        0.69710
H          7.98180        3.28500       -0.57850
H          8.58600        0.88310        0.90770
H          8.24110        1.00070       -0.89780
H          7.94010       -1.25160        1.07160
H          8.69950       -1.23650       -0.59920
H          5.40470       -2.97890       -0.52380
H          7.79670       -2.49130       -2.45870
H          6.18380       -2.02150       -2.93450
H          6.52620       -3.76600       -2.65160
H          8.32370       -3.43160       -0.17270
H          7.00780       -4.62160       -0.32110
H          7.02380       -3.50070        1.08490
