32

P          0.90640        0.02560        0.02400
F         -0.74680        0.25850       -0.09810
F          0.87990       -0.94840       -1.33770
F          0.71920       -0.54130        1.58940
Pd         3.36640        0.02560        0.02400
Br         2.91330       -2.22940        1.00360
C          3.34110        1.74190       -1.11360
C          3.87050        1.64480       -2.33940
C          5.51640        0.02560        0.02400
N          6.37940        1.08000       -0.15840
C          6.13570        2.52200       -0.21790
C          7.63670        0.56220       -0.11860
C          8.92900        1.32190       -0.21140
C          7.54940       -0.78860        0.06020
C          8.70070       -1.76530        0.12770
N          6.25290       -1.12090        0.17910
C          5.80160       -2.50950        0.31080
H          2.91300        2.67450       -0.76350
H          4.29010        0.69470       -2.66340
H          3.90530        2.48990       -3.01540
H          5.11060        2.80740        0.02830
H          6.45870        2.93150       -1.19870
H          6.72270        3.02370        0.58840
H          8.78050        2.41220       -0.32640
H          9.51630        0.95330       -1.07300
H          9.51230        1.15230        0.72300
H          9.68100       -1.25890        0.02650
H          8.61140       -2.49690       -0.70320
H          8.68030       -2.30500        1.09730
H          6.62350       -3.24020        0.19670
H          5.09020       -2.74330       -0.51260
H          5.41550       -2.68230        1.32940
