30

P          1.00180       -0.05770        0.08160
F         -0.66000        0.10070       -0.04250
F          0.98180       -1.28780       -1.05370
F          0.86680       -0.35620        1.72320
Pd         3.46180       -0.05770        0.08160
Br         3.28360       -2.01020        1.63310
C          3.44320        1.08550       -1.67540
C          4.28010        0.72650       -2.65830
N          5.56180       -0.05770        0.08160
C          6.27700        1.05030       -0.34230
N          5.63710        2.35010       -0.40870
C          4.50640        2.67490        0.46850
C          6.20460        3.48030       -1.13390
C          7.68200        0.96880       -0.44810
C          8.34230       -0.20150       -0.10150
C          7.61690       -1.27250        0.39410
C          6.23310       -1.17170        0.50630
H          2.75990        1.91320       -1.82790
H          4.95240       -0.11890       -2.52150
H          4.31340        1.25260       -3.60540
H          4.17600        1.80950        1.06830
H          3.65620        3.08220       -0.11170
H          4.80740        3.46510        1.18550
H          7.06850        3.21150       -1.76460
H          6.51690        4.26750       -0.40940
H          5.43510        3.91240       -1.80780
H          8.28980        1.81190       -0.72930
H          9.41520       -0.25500       -0.17870
H          8.12390       -2.17890        0.68780
H          5.71980       -2.04900        0.84500
