22

P          1.04680        0.05010       -0.07280
F         -0.62110        0.16310        0.01330
F          1.03520        0.91620       -1.50540
F          0.93040       -1.61880       -0.03000
Pd         3.50680        0.05010       -0.07280
Br         3.33340       -1.93780       -1.58440
C          3.44420        1.62260        1.28960
C          2.93590        2.81600        1.01730
N          5.60680        0.05010       -0.07280
C          6.31480        1.06690        0.51450
C          7.71270        1.09720        0.47750
C          8.41260        0.06300       -0.12830
C          7.70220       -0.98120       -0.70540
C          6.30630       -0.96230       -0.68400
H          3.85730        1.43470        2.27800
H          2.51450        3.03270        0.04460
H          2.94180        3.58610        1.78860
H          5.83060        1.90740        0.98040
H          8.25180        1.93220        0.91400
H          9.49400        0.07300       -0.15330
H          8.23160       -1.80250       -1.17430
H          5.82340       -1.79700       -1.13830
