61

P          0.92950        0.02010       -0.06800
C          0.08370        1.32060        0.86850
C         -0.97770        2.13230        0.43570
C         -1.45200        3.16790        1.25700
C         -0.86050        3.42030        2.51540
O         -1.26620        4.41910        3.33910
C         -2.28680        5.30840        3.08400
C          0.20260        2.62150        2.93240
C          0.66290        1.58940        2.12080
C          0.62030        0.36520       -1.81000
C          1.68670        0.55730       -2.69120
C          1.45510        0.69920       -4.06120
C          0.14210        0.66540       -4.57270
O         -0.12710        0.78340       -5.89860
C          0.81860        0.91990       -6.89380
C         -0.92600        0.48520       -3.68690
C         -0.68920        0.32140       -2.31900
C          0.23480       -1.54790        0.55460
C         -0.72530       -1.59560        1.57340
C         -1.32010       -2.81120        1.94550
C         -0.95000       -4.01300        1.30390
O         -1.51930       -5.21100        1.59040
C         -2.56060       -5.41680        2.47250
C          0.01000       -3.97010        0.29620
C          0.58870       -2.75330       -0.08190
Pd         3.38950        0.02010       -0.06800
Br         3.64700       -2.00270       -1.52590
C          3.49520       -1.61350        1.24490
C          3.41410       -1.37970        2.55380
N          5.48950        0.02010       -0.06800
C          6.25680        1.11930       -0.16030
O          7.53540        0.81330       -0.13040
C          7.62430       -0.49370       -0.01450
C          6.34820       -1.01060        0.02700
H         -1.44430        2.00380       -0.52060
H         -2.27240        3.77410        0.90430
H         -2.38440        6.00400        3.94320
H         -3.24410        4.76040        2.95880
H         -2.05980        5.90060        2.17190
H          0.68560        2.80830        3.88520
H          1.50460        1.00490        2.47060
H          2.70280        0.56750       -2.32850
H          2.30710        0.81880       -4.71520
H          0.31040        0.98530       -7.87710
H          1.49400        0.03710       -6.90270
H          1.40850        1.84730       -6.73430
H         -1.94220        0.44640       -4.06210
H         -1.53240        0.13330       -1.66640
H         -1.04980       -0.69830        2.07380
H         -2.06980       -2.80700        2.71770
H         -2.82550       -6.49540        2.47340
H         -3.45280       -4.83920        2.15060
H         -2.26030       -5.12270        3.49900
H          0.29630       -4.88000       -0.22140
H          1.27560       -2.77690       -0.89580
H          3.80160       -2.61990        0.97980
H          3.25520       -0.37570        2.92470
H          3.57440       -2.18560        3.26480
H          5.86940        2.12510       -0.25090
H          8.55000       -1.05070        0.04000
H          6.07860       -2.05260        0.12300
