77

P          1.06480       -0.05190       -0.05570
C          0.19310       -1.45820        0.69970
C         -0.34100       -2.50190       -0.07510
C         -0.76680       -3.69450        0.53830
C         -0.65740       -3.85920        1.92290
F         -1.03240       -5.02420        2.50980
C         -0.12190       -2.83550        2.70080
C          0.30820       -1.65460        2.09550
C          0.82320        1.26820        1.17430
C          1.73780        1.43110        2.22420
C          1.53770        2.42140        3.19620
C          0.41850        3.25700        3.13020
F          0.21760        4.20690        4.07700
C         -0.49630        3.10850        2.09060
C         -0.29590        2.12380        1.11860
C          0.39630        0.36420       -1.69250
C         -0.98140        0.62100       -1.82820
C         -1.51860        1.00160       -3.05860
C         -0.69620        1.10430       -4.17900
F         -1.22230        1.48280       -5.37200
C          0.66830        0.80960       -4.07050
C          1.21300        0.44040       -2.83250
Pd         3.52480       -0.05190       -0.05570
Br         3.52480        2.26810       -1.20710
C          3.52480       -1.97780        0.90010
C          3.29100       -3.09130        0.20830
P          5.98480       -0.05190       -0.05570
C          7.04070       -1.43720        0.72760
C          6.70920       -2.79570        0.05040
C          8.56760       -1.31310        0.69230
C          6.62950       -1.53690        2.21920
C          6.39160        0.13160       -1.82910
C          6.72220        1.38430       -2.38610
C          7.07150        1.49650       -3.73210
C          7.12500        0.35820       -4.54800
C          6.80700       -0.88620       -4.01190
C          6.42380       -0.99710       -2.67680
C          6.37160        1.50100        0.83500
C          5.37380        2.25970        1.45360
C          5.67980        3.44430        2.12800
C          7.01270        3.85600        2.25160
C          8.02560        3.09590        1.66530
C          7.70370        1.93350        0.94670
H         -0.37370       -2.42610       -1.15360
H         -1.14900       -4.51090       -0.06150
H         -0.00300       -2.97000        3.76960
H          0.77600       -0.92070        2.73040
H          2.59800        0.78100        2.29940
H          2.24520        2.53450        4.00380
H         -1.36840        3.75160        2.03620
H         -1.03490        2.05490        0.34740
H         -1.64970        0.53570       -0.98470
H         -2.57980        1.22450       -3.13880
H          1.29750        0.87550       -4.94730
H          2.26880        0.21820       -2.76840
H          3.57660       -2.04400        1.97820
H          3.18980       -3.05160       -0.87000
H          3.23560       -4.04720        0.72050
H          7.32000       -2.96810       -0.85640
H          5.66390       -2.86930       -0.25400
H          6.92450       -3.66560        0.70970
H          8.92700       -1.21370       -0.35110
H          9.01380       -2.24100        1.12510
H          8.93580       -0.49460        1.32860
H          5.54760       -1.54980        2.36470
H          6.99950       -0.67100        2.80180
H          7.02000       -2.46510        2.69400
H          6.69150        2.27530       -1.77830
H          7.30790        2.46260       -4.15880
H          7.40850        0.43340       -5.58670
H          6.86110       -1.77040       -4.64000
H          6.17960       -1.97820       -2.33180
H          4.33930        1.96260        1.38200
H          4.89970        4.03910        2.57970
H          7.25720        4.75530        2.79910
H          9.05860        3.40280        1.77070
H          8.51430        1.39460        0.49260
