68

P          1.04770       -0.00690        0.08760
C          0.33160        1.53370       -0.55150
C         -1.00560        1.74240       -0.94280
C         -1.37210        2.96060       -1.54510
C         -0.42390        3.96380       -1.77080
F         -0.77090        5.12250       -2.37550
C          0.90620        3.75270       -1.40000
C          1.27190        2.55000       -0.80150
C          0.78160       -1.09450       -1.33160
C          1.26960       -0.74690       -2.60910
C          1.22500       -1.68310       -3.65450
C          0.65620       -2.94360       -3.44530
F          0.65440       -3.86270       -4.44390
C          0.10930       -3.26570       -2.19980
C          0.16990       -2.34410       -1.14450
C          0.23550       -0.16090        1.69580
C         -1.16720       -0.30020        1.73540
C         -1.83770       -0.58710        2.92660
C         -1.11090       -0.74680        4.10110
F         -1.76500       -1.05850        5.25120
C          0.27930       -0.62430        4.09520
C          0.95400       -0.33190        2.89010
Pd         3.50770       -0.00690        0.08760
Br         3.54440        1.79300        1.80670
C          3.79870       -1.58400       -1.35070
C          4.94660       -2.19050       -1.70510
C          5.65770       -0.00690        0.08760
N          6.42640       -0.36810        1.13350
C          5.96160       -0.98890        2.37960
C          6.50430       -2.42860        2.46400
C          6.39310       -0.18290        3.60000
C          7.70440       -0.19560        0.73220
C          7.69380        0.29780       -0.55690
N          6.40890        0.41400       -0.95840
C          5.91460        1.03270       -2.20000
C          6.36420        2.50230       -2.24800
C          6.40650        0.30640       -3.45590
H         -1.75650        0.98640       -0.84390
H         -2.39390        3.12050       -1.86320
H          1.65660        4.50840       -1.59050
H          2.31600        2.40530       -0.56870
H          1.76770        0.20000       -2.76920
H          1.67010       -1.44700       -4.61270
H         -0.33100       -4.24260       -2.04210
H         -0.21690       -2.63100       -0.17530
H         -1.75850       -0.24820        0.84060
H         -2.91390       -0.70760        2.92030
H          0.83740       -0.77810        5.00070
H          2.03330       -0.29560        2.89230
H          2.98700       -2.08480       -1.80540
H          5.92930       -1.95570       -1.33510
H          4.91850       -3.02310       -2.40270
H          4.85000       -1.05110        2.36940
H          7.61580       -2.43640        2.48440
H          6.17090       -3.01700        1.58120
H          6.13510       -2.93820        3.37910
H          7.50000       -0.11810        3.65550
H          6.01700       -0.67480        4.52330
H          5.96700        0.83870        3.54390
H          8.58040       -0.42350        1.32530
H          8.55980        0.56840       -1.14720
H          4.80160        1.02240       -2.19610
H          7.47390        2.57640       -2.26390
H          5.99040        3.04850       -1.35550
H          5.96840        3.00550       -3.15570
H          7.51410        0.32350       -3.51600
H          5.99190        0.80770       -4.35750
H          6.06340       -0.74120       -3.47910
