22

P          0.91230        0.00340        0.04800
Cl        -0.58480        0.82690       -1.12700
Cl         1.05040       -1.52260       -1.35090
Cl        -0.68740       -0.20930        1.35010
Pd         3.37230        0.00340        0.04800
Br         3.16880       -1.58810        1.95200
C          3.34470        1.04600       -1.76240
C          2.80580        2.23920       -1.96610
N          5.47230        0.00340        0.04800
C          6.15070        0.89260       -0.74780
C          7.54780        0.93890       -0.76710
F          8.18840        1.86560       -1.51960
C          8.27020        0.02550       -0.00660
C          7.59320       -0.89090        0.78090
C          6.19160       -0.86720        0.82710
H          3.81260        0.53220       -2.59850
H          2.31950        2.78010       -1.15490
H          2.84850        2.65900       -2.97040
H          5.64060        1.63010       -1.33820
H          9.35070        0.02770       -0.04630
H          8.14610       -1.62430        1.35550
H          5.71290       -1.60120        1.44310
