52

P          1.05170        0.04810        0.07080
C          0.25860        0.72800        1.61750
C         -1.27180        0.72470        1.76270
C          0.85460       -0.03400        2.81530
C          0.69310        1.20520       -1.33200
C          1.27330        0.60820       -2.61700
C         -0.81360        1.41140       -1.56280
C          0.30190       -1.61790        0.03750
Pd         3.51170        0.04810        0.07080
Br         3.51170        2.62070        0.37100
C          3.51170       -2.08740       -0.17840
C          3.01560       -3.00310        0.65550
P          5.97170        0.04810        0.07080
C          7.23100       -0.92240       -0.84760
C          6.59800        1.75180       -0.01720
C          6.27720       -1.00990        1.54650
C          5.23410       -1.50500        2.32230
C          5.47220       -2.30090        3.44800
C          6.77820       -2.59630        3.83320
C          7.84600       -2.06800        3.10990
C          7.59870       -1.27420        1.98600
H          0.61210        1.77610        1.71020
H         -1.69370       -0.29680        1.69630
H         -1.78970        1.38630        1.06340
H         -1.52980        1.13360        2.76510
H          0.51270       -1.08870        2.84380
H          0.55100        0.43880        3.77270
H          1.96560       -0.02470        2.77330
H          1.15710        2.19670       -1.15920
H          0.80210       -0.37560       -2.83830
H          2.36970        0.47620       -2.52730
H          1.07220        1.28480       -3.47740
H         -1.34820        0.43920       -1.64000
H         -0.99930        1.97980       -2.49850
H         -1.25330        2.03900       -0.77880
H         -0.79930       -1.50230       -0.04050
H          0.50450       -2.21310        0.93980
H          0.63540       -2.16120       -0.86850
H          3.97350       -2.43830       -1.09550
H          2.54580       -2.73010        1.59050
H          3.08520       -4.05430        0.38950
H          7.14310       -0.62410       -1.91390
H          7.00510       -2.00980       -0.80170
H          8.27770       -0.70850       -0.57340
H          6.32000        2.20170       -0.99270
H          7.70270        1.74590        0.08060
H          6.19360        2.35270        0.81940
H          4.21430       -1.25540        2.08180
H          4.64500       -2.68630        4.02610
H          6.97040       -3.21110        4.70150
H          8.86280       -2.27010        3.41450
H          8.46890       -0.87610        1.48860
