74

P          1.05520       -0.05010        0.06670
C          0.23430       -1.25330       -1.04450
C         -1.13180       -1.55360       -1.12070
C         -1.59250       -2.59070       -1.97130
C         -0.69610       -3.31600       -2.75560
O         -1.06300       -4.38120       -3.54210
C         -2.32430       -4.91180       -3.61610
C          0.65880       -2.99550       -2.73870
C          1.10230       -1.96870       -1.91000
C          0.72570       -0.96600        1.61940
C         -0.02840       -2.15720        1.74780
C         -0.39870       -2.63890        3.00800
C         -0.00820       -1.95860        4.17550
O         -0.37110       -2.36260        5.42060
C         -1.18980       -3.43280        5.71500
C          0.77040       -0.80710        4.05520
C          1.13350       -0.32190        2.79870
C          0.00050        1.42330       -0.12700
C         -0.20390        2.26230        0.98060
C         -0.95840        3.42560        0.86900
C         -1.53160        3.78700       -0.36160
O         -2.31760        4.88370       -0.49860
C         -2.79270        5.64890        0.54860
C         -1.28770        2.97880       -1.48430
C         -0.52910        1.79960       -1.37220
Pd         3.51520       -0.05010        0.06670
Br         3.71520       -2.55630       -0.09110
C          2.98710        2.00240        0.06000
C          3.62870        2.95660        0.71980
N          5.61520       -0.05010        0.06670
C          6.52580        0.87470       -0.24000
C          6.38920        2.26930       -0.86350
C          5.20600        2.66200       -1.49080
C          4.95600        4.00640       -1.80790
C          5.95800        4.95840       -1.67730
C          7.22940        4.55310       -1.28090
C          7.43350        3.22180       -0.85240
N          7.84370        0.41810       -0.02150
C          7.80090       -0.82490        0.65080
C          6.34810       -1.25040        0.45580
H         -1.83450       -1.00800       -0.49870
H         -2.64660       -2.80570       -1.98790
H         -2.29470       -5.79980       -4.29850
H         -3.04000       -4.17990       -4.02690
H         -2.65610       -5.26090       -2.61390
H          1.37040       -3.53430       -3.34380
H          2.15000       -1.72680       -1.94210
H         -0.39850       -2.71900        0.90990
H         -1.00930       -3.52970        3.06220
H         -1.29680       -3.51390        6.81600
H         -0.74220       -4.37390        5.33090
H         -2.19790       -3.28010        5.27250
H          1.07490       -0.26520        4.94290
H          1.70550        0.59520        2.75110
H          0.22440        2.03660        1.94160
H         -1.09310        4.03560        1.75300
H         -3.48360        6.42280        0.15890
H         -1.95720        6.14800        1.08510
H         -3.36010        5.00430        1.25710
H         -1.70070        3.25550       -2.44600
H         -0.35150        1.20150       -2.24990
H          2.07170        2.36670       -0.33990
H          4.48420        2.71860        1.32120
H          3.19290        3.95510        0.71510
H          4.46530        1.92240       -1.65350
H          3.97040        4.30060       -2.14230
H          5.75820        5.99680       -1.91840
H          8.03400        5.27900       -1.25280
H          8.43900        3.00080       -0.51870
H          8.71290        0.94770       -0.15510
H          8.04360       -0.60130        1.71660
H          8.51150       -1.57050        0.23910
H          5.98960       -1.64960        1.43210
H          6.29830       -2.00060       -0.35450
