64

P          0.95350       -0.07330       -0.04960
C          0.11710        0.96230       -1.46560
C         -1.42680        0.96750       -1.51850
C          0.57240        2.44170       -1.36190
C          0.59960        0.53630       -2.87530
C          0.55750       -2.00270       -0.35870
C          1.09180       -2.71330       -1.63590
C          1.15360       -2.93920        0.73540
C         -0.96660       -2.24510       -0.37220
C          0.20610        0.86340        1.45160
C          0.14090        0.43640        3.00180
C          1.50220        0.32760        3.65820
C         -0.63820        1.52480        3.78090
C         -0.60480       -0.87210        3.29930
Pd         3.41350       -0.07330       -0.04960
Br         3.53630       -1.09020       -2.34260
C          3.50380        1.16720        1.60430
C          4.19290        0.75370        2.68480
N          5.51350       -0.07330       -0.04960
C          6.27830        0.81100        0.67220
N          7.64890        0.77310        0.62900
C          8.30730       -0.15530       -0.10380
O          9.66510       -0.17520       -0.15540
C         10.46860        0.83540        0.32530
C          7.58500       -1.07470       -0.83400
C          6.19050       -1.00330       -0.80820
H         -1.89360        1.36710       -0.60570
H         -1.85870       -0.00390       -1.76270
H         -1.76760        1.61560       -2.35810
H          0.23170        2.93220       -0.43400
H          0.14970        3.04010       -2.19900
H          1.68030        2.52550       -1.43700
H          0.23400       -0.44970       -3.17330
H          1.69350        0.62020       -2.96870
H          0.20390        1.20700       -3.66810
H          2.15850       -2.96730       -1.54450
H          0.85910       -2.25900       -2.59670
H          0.66390       -3.73690       -1.72810
H          2.25620       -2.85000        0.80590
H          0.92380       -4.00880        0.50560
H          0.74020       -2.87790        1.71470
H         -1.41640       -1.90820       -1.31310
H         -1.46910       -1.79230        0.50560
H         -1.20280       -3.33420       -0.36750
H         -0.86480        0.94440        1.20500
H          0.63230        1.88450        1.42560
H          1.97320        1.32870        3.64620
H          2.08080       -0.46810        3.14480
H          1.44070        0.04040        4.73010
H         -0.16020        2.52040        3.67250
H         -0.65890        1.28560        4.87090
H         -1.69050        1.58640        3.43420
H         -0.01390       -1.71250        3.01970
H         -1.60900       -0.91430        2.83770
H         -0.70530       -1.02970        4.39730
H          3.03460        2.14280        1.59300
H          4.66880       -0.22330        2.68700
H          4.29630        1.38350        3.56280
H          5.87510        1.62860        1.23430
H         11.53220        0.54700        0.18740
H         10.27670        1.01410        1.40310
H         10.27770        1.76530       -0.25110
H          8.08250       -1.84340       -1.40850
H          5.69680       -1.77910       -1.34900
