43

P          0.94780       -0.05330       -0.06660
C          0.15090       -0.33220        1.59690
C         -1.38560       -0.41750        1.70720
C          0.74320       -1.62640        2.18670
C          0.61300        1.68790       -0.59860
C          1.20040        1.88180       -1.99870
C         -0.88740        2.00980       -0.67400
C          0.22120       -1.43870       -1.00960
Pd         3.40780       -0.05330       -0.06660
Br         3.40780        1.93020        1.59890
C          3.40780       -1.69990       -1.44910
C          2.99110       -2.93100       -1.16420
N          5.50780       -0.05330       -0.06660
C          6.23090        0.97390        0.49530
C          7.62770        0.99960        0.45950
C          8.32070       -0.04590       -0.11720
C          7.61220       -1.09970       -0.67440
C          6.21990       -1.07900       -0.66230
H          0.50350        0.49490        2.24960
H         -1.79680       -1.23490        1.10290
H         -1.89470        0.52120        1.47510
H         -1.63990       -0.61110        2.77510
H          0.39940       -2.52400        1.62870
H          0.43770       -1.75550        3.24300
H          1.85470       -1.59860        2.15480
H          1.08850        2.41180        0.09150
H          0.72190        1.18670       -2.72220
H          2.29470        1.70120       -1.99090
H          1.02070        2.92190       -2.34950
H         -1.43240        1.25220       -1.27800
H         -1.05370        3.00660       -1.13560
H         -1.32140        2.10040        0.33010
H         -0.88200       -1.31700       -1.01190
H          0.45180       -2.42810       -0.58390
H          0.55550       -1.38830       -2.06470
H          3.80330       -1.49940       -2.44020
H          2.59610       -3.17950       -0.18900
H          3.03620       -3.69460       -1.93780
H          5.78650        1.83410        0.93420
H          8.16430        1.84410        0.87830
H          9.40410       -0.04020       -0.13620
H          8.14390       -1.93210       -1.11580
H          5.74030       -1.93380       -1.09230
