65

P          0.91230        0.03160        0.03610
C          0.10290        1.40950       -0.94340
C         -1.42780        1.56340       -0.96730
C          0.68720        2.74340       -0.44700
C          0.45520       -1.57940       -0.79540
C          0.89630       -2.74990        0.08180
C         -1.05790       -1.77810       -0.98040
C          0.17670        0.38310        1.67320
Pd         3.37230        0.03160        0.03610
Br         3.37230       -0.19950       -2.54360
C          3.37230        0.22350        2.17750
C          2.86290       -0.65140        3.04230
C          5.52230        0.03160        0.03610
N          6.31080        1.14750        0.01400
C          5.95670        2.58990       -0.09560
C          4.45370        2.78720       -0.31170
C          6.37640        3.34270        1.19040
C          6.70450        3.19990       -1.29930
C          7.57670        0.68400        0.05360
C          7.55710       -0.68380        0.08360
N          6.27900       -1.10180        0.07510
C          5.86620       -2.52990        0.15450
C          6.44480       -3.14740        1.44420
C          4.36430       -2.66480        0.20230
C          6.37010       -3.30460       -1.08040
H          0.45260        1.28890       -1.99190
H         -1.85190        1.70200        0.04380
H         -1.95930        0.76360       -1.48390
H         -1.68130        2.46850       -1.56340
H          0.35290        2.98260        0.58280
H          0.37540        3.58330       -1.10310
H          1.79000        2.70870       -0.46180
H          0.94720       -1.65420       -1.78620
H          0.38370       -2.73790        1.06710
H          1.95620       -2.70510        0.26810
H          0.68380       -3.71960       -0.42170
H         -1.60300       -1.61720       -0.02230
H         -1.28130       -2.81160       -1.32490
H         -1.45240       -1.15360       -1.78620
H         -0.92850        0.35140        1.57360
H          0.48340        1.35800        2.09000
H          0.41060       -0.42710        2.38290
H          3.81650        1.13030        2.57400
H          2.39080       -1.56770        2.71340
H          2.91070       -0.43050        4.10570
H          3.88030        2.38470        0.54320
H          4.13350        2.27630       -1.24210
H          4.21340        3.86640       -0.41380
H          5.79160        2.98680        2.06370
H          6.19960        4.43180        1.07210
H          7.45780        3.19390        1.40690
H          6.44190        2.65830       -2.23310
H          7.80690        3.13890       -1.16650
H          6.44900        4.27190       -1.42570
H          8.47760        1.28710        0.04460
H          8.42730       -1.32850        0.11750
H          6.08170       -2.57880        2.33010
H          7.55420       -3.11860        1.44480
H          6.12660       -4.20570        1.55310
H          3.97500       -2.12950        1.08540
H          4.06170       -3.72960        0.28330
H          3.91410       -2.24290       -0.71560
H          7.47240       -3.24650       -1.17970
H          5.90830       -2.89610       -2.00560
H          6.08350       -4.37710       -1.00130
