36

P          0.90870        0.00040        0.04080
C         -0.40230       -0.70710       -1.00960
C          0.72980       -1.24320        1.35930
C          0.11930        1.59700        0.26070
C         -0.86310        1.79090        1.24290
C         -1.58740        2.98840        1.28070
C         -1.33630        3.99160        0.33670
C         -0.35610        3.80210       -0.64050
C          0.36640        2.60610       -0.68440
Pd         3.36870        0.00040        0.04080
Br         3.36870        1.59480        2.08190
C          3.36870       -1.32310       -1.65350
C          3.53740       -0.83290       -2.87920
O          5.41870        0.00040        0.04080
C          6.20320        0.67250        0.86750
C          7.52990        0.41720        0.54500
C          7.50240       -0.45420       -0.50780
C          6.18100       -0.68460       -0.79710
H         -1.40740       -0.64980       -0.55260
H         -0.14250       -1.76810       -1.22360
H         -0.39280       -0.17580       -1.98620
H         -0.34580       -1.39900        1.59230
H          1.24340       -0.89660        2.27710
H          1.16790       -2.20640        1.02560
H         -1.09920        1.00580        1.94920
H         -2.36460        3.13000        2.01910
H         -1.91060        4.90910        0.35330
H         -0.17350        4.57060       -1.38120
H          1.09280        2.45300       -1.47070
H          3.11620       -2.37000       -1.52130
H          3.70710        0.22900       -3.01690
H          3.46970       -1.48550       -3.74370
H          5.91280        1.32050        1.66150
H          8.39940        0.81600        1.04310
H          8.36420       -0.87420       -1.02270
H          5.84680       -1.33950       -1.58610
