41

P          1.07970       -0.04250       -0.04290
C         -0.05700        1.23670       -0.67330
C          0.77820       -1.25850       -1.36570
C          0.28800       -0.17540        1.59270
Pd         3.53970       -0.04250       -0.04290
Br         3.64480        0.25500       -2.51690
C          3.47260        0.17510        2.00960
C          3.22230        1.35450        2.56540
N          5.63970       -0.04250       -0.04290
C          6.43810       -1.04410       -0.15740
C          6.05890       -2.45900       -0.37920
C          4.88390       -2.84810       -1.04270
C          4.59940       -4.20400       -1.27760
C          5.45930       -5.19700       -0.81150
C          6.61420       -4.84270       -0.11550
C          6.91220       -3.48710        0.09630
N          7.78550       -0.66360       -0.01590
C          7.84130        0.76650       -0.01110
C          6.38110        1.16120        0.25040
H         -1.11310        0.91130       -0.68820
H          0.26410        1.50510       -1.70500
H          0.05810        2.15250       -0.05360
H         -0.31690       -1.39310       -1.49330
H          1.22390       -2.23330       -1.08400
H          1.19060       -0.91910       -2.33250
H         -0.81490       -0.24300        1.43900
H          0.48890        0.72390        2.20620
H          0.60870       -1.09830        2.11060
H          3.57910       -0.70890        2.63220
H          3.08300        2.22640        1.93890
H          3.14230        1.43950        3.64450
H          4.20150       -2.11370       -1.42090
H          3.70940       -4.47790       -1.83250
H          5.24060       -6.24000       -0.99140
H          7.27410       -5.60390        0.27010
H          7.81420       -3.24870        0.64520
H          8.60660       -1.27630       -0.15690
H          8.14840        1.06310       -1.04000
H          8.53590        1.19480        0.74070
H          6.09110        1.99330       -0.42920
H          6.19750        1.43910        1.30770
