83

P          0.93560       -0.06260       -0.04400
C         -0.12060        0.54170       -1.41260
C         -1.18520       -0.18810       -1.97310
C         -1.76710        0.22470       -3.17960
C         -1.27860        1.34620       -3.85580
C         -0.24350        2.09330       -3.30040
C          0.31010        1.71100       -2.07690
C          0.49620       -1.82340       -0.10850
C          0.86800       -2.61140       -1.20950
C          0.35850       -3.91140       -1.34660
C         -0.52650       -4.42710       -0.39420
C         -0.87940       -3.65980        0.71370
C         -0.36240       -2.37420        0.86410
C          0.13400        0.78120        1.38760
C          0.78170        1.60940        2.34690
O          2.09180        1.93670        2.23210
C          2.69180        2.84980        3.08660
C          0.01590        2.14910        3.41710
C         -1.34220        1.92330        3.52570
C         -1.98720        1.16480        2.56650
C         -1.26360        0.60710        1.51310
Pd         3.39560       -0.06260       -0.04400
Br         3.39560       -1.13080        2.31550
C          3.39560        0.82410       -2.00260
C          4.15490        1.47840       -2.86280
P          5.85560       -0.06260       -0.04400
C          6.87130        0.37590       -1.50660
C          7.19940        1.72930       -1.75670
C          7.61940        2.13910       -3.02980
C          7.74090        1.21330       -4.06560
C          7.46970       -0.13270       -3.82860
C          7.02660       -0.54680       -2.56610
C          6.59050        1.08690        1.15330
C          5.74980        1.96860        1.80540
C          6.27030        2.97090        2.64150
C          7.64650        3.10470        2.78920
C          8.50370        2.22950        2.11700
C          7.98020        1.21790        1.30260
C          5.99620       -1.85550        0.23220
C          6.71840       -2.47540        1.28870
O          7.36910       -1.71990        2.22200
C          8.10940       -2.23410        3.27260
C          6.75770       -3.88660        1.35630
C          6.09090       -4.67510        0.40610
C          5.38270       -4.06040       -0.61880
C          5.32910       -2.67600       -0.69460
H         -1.54990       -1.09220       -1.51320
H         -2.57100       -0.35190       -3.61460
H         -1.69280        1.63050       -4.81530
H          0.15650        2.94870       -3.83460
H          1.14270        2.29110       -1.69520
H          1.51030       -2.20780       -1.98010
H          0.62240       -4.51100       -2.20720
H         -0.94870       -5.41650       -0.51570
H         -1.57590       -4.04790        1.44730
H         -0.68730       -1.81260        1.72230
H          3.64560        3.18160        2.71010
H          2.80840        2.41390        4.10350
H          2.12060        3.79950        3.11140
H          0.45640        2.77230        4.18460
H         -1.89270        2.35820        4.35030
H         -3.05340        1.00470        2.64330
H         -1.81220        0.02050        0.79220
H          2.42630        0.66980       -2.41690
H          5.10240        1.83230       -2.65740
H          3.73350        1.76680       -3.82490
H          7.01020        2.49920       -1.02240
H          7.77850        3.18930       -3.23260
H          8.01790        1.54430       -5.05940
H          7.53920       -0.84410       -4.64210
H          6.75090       -1.58060       -2.46820
H          4.69520        1.83970        1.61740
H          5.63860        3.67250        3.16290
H          8.04380        3.89330        3.41610
H          9.57210        2.35860        2.21900
H          8.65420        0.57810        0.75360
H          8.52460       -1.40510        3.87840
H          8.95360       -2.84610        2.88740
H          7.46530       -2.86260        3.93040
H          7.29770       -4.41610        2.12980
H          6.14780       -5.75230        0.45700
H          4.87460       -4.66760       -1.35780
H          4.75910       -2.22770       -1.50210
