108

P          0.91130        0.02210        0.04050
C         -0.22400       -1.63930       -0.00780
C         -1.73270       -1.36090       -0.00690
C          0.01950       -2.48280       -1.29430
C          0.01540       -2.72050        1.14090
C          0.21890        0.63930        1.77050
C         -0.20060       -0.17670        2.86720
C         -0.72480        0.31260        4.06610
C         -0.85040        1.66940        4.26980
C         -0.44630        2.53110        3.26490
C          0.06580        2.02520        2.05410
C          0.14100        0.85400       -1.41560
C         -0.72130        1.94120       -1.13570
C         -1.32270        2.69860       -2.12990
C         -1.11330        2.37150       -3.45800
C         -0.30790        1.27370       -3.78000
C          0.32340        0.51780       -2.76930
Pd         3.37130        0.02210        0.04050
Br         3.58370        0.38830       -2.43580
C          3.08870       -0.32820        2.17010
C          3.70630       -0.26950        3.33480
C          5.52130        0.02210        0.04050
N          6.27630        1.22780        0.00270
C          6.06710        2.74800       -0.14140
C          4.83610        3.46050        0.17390
C          3.65450        2.81710        0.77540
C          4.08820        2.53350        2.21480
C          2.35890        3.65430        0.73500
C          4.74370        4.88690        0.08730
C          5.78310        5.67380       -0.24480
C          6.95670        5.08570       -0.55670
C          7.14240        3.66040       -0.57360
C          8.51620        3.31100       -1.10200
C          8.69420        3.89520       -2.52070
C          9.61860        3.82470       -0.14890
C          7.49720        0.78320        0.36430
C          7.53920       -0.56900        0.50200
N          6.33230       -1.13660        0.29730
C          6.17580       -2.69170        0.28130
C          7.12240       -3.69000        0.86600
C          8.43260       -3.40490        1.59980
C          8.82970       -4.43230        2.70280
C          9.56130       -3.39350        0.55270
C          6.86270       -5.09660        0.76060
C          5.77210       -5.62060        0.14710
C          4.89640       -4.78120       -0.42200
C          5.07940       -3.37710       -0.39460
C          3.95990       -2.65410       -0.95240
C          3.34410       -3.16900       -2.28930
C          3.01780       -2.71660        0.22120
H         -2.02960       -0.76320       -0.88680
H         -2.04470       -0.86020        0.92820
H         -2.28930       -2.33030       -0.05390
H         -0.21510       -1.96890       -2.23210
H         -0.60430       -3.40750       -1.29970
H          1.01670       -2.90020       -1.33640
H         -0.79260       -2.75210        1.90010
H          0.99160       -2.68050        1.65660
H         -0.11460       -3.77530        0.81010
H         -0.11900       -1.20390        2.90080
H         -1.02820       -0.37670        4.84640
H         -1.25350        2.04350        5.20480
H         -0.54120        3.59840        3.42540
H          0.30760        2.76080        1.34770
H         -0.96740        2.24170       -0.14950
H         -1.95310        3.54000       -1.85780
H         -1.58650        2.96920       -4.22730
H         -0.17090        1.02050       -4.82070
H          0.94410       -0.31200       -3.05960
H          2.07050       -0.59540        2.35070
H          4.72040        0.08490        3.50810
H          3.09960       -0.42680        4.23800
H          3.40840        1.96490        0.16720
H          4.51300        3.44940        2.69000
H          4.91020        1.79410        2.20350
H          3.22740        2.22670        2.83430
H          2.63120        4.36920        1.53080
H          2.26590        3.85430       -0.36240
H          1.58070        4.42890        0.87800
H          3.87380        5.47170        0.33210
H          5.67000        6.75410       -0.25360
H          7.73150        5.79050       -0.81690
H          8.62460        2.23280       -1.25360
H          8.65030        5.00430       -2.55270
H          7.88100        3.51800       -3.17730
H          9.67610        3.60900       -2.94000
H          9.65290        4.93530       -0.10220
H         10.61180        3.47310       -0.48950
H          9.44450        3.45900        0.88630
H          8.36330        1.38290        0.57570
H          8.45570       -1.04110        0.73700
H          8.31390       -2.47610        2.18220
H          9.11680       -5.43060        2.30480
H          8.00900       -4.56230        3.44040
H          9.73800       -4.08800        3.23470
H          9.63510       -4.39020        0.06050
H         10.53270       -3.16280        1.03230
H          9.37810       -2.66650       -0.26260
H          7.49430       -5.86780        1.15240
H          5.59890       -6.69320        0.10920
H          4.03550       -5.25590       -0.87430
H          4.30620       -1.66210       -1.13090
H          2.80920       -4.13930       -2.18420
H          4.11280       -3.28160       -3.07770
H          2.59820       -2.44770       -2.67920
H          2.57220       -3.72340        0.36500
H          2.28790       -1.99160        0.04220
H          3.51650       -2.45250        1.17580
