81

P          0.94060        0.02160       -0.07750
C         -0.00400        1.66900       -0.72200
C         -0.02440        2.86900        0.27960
C          1.20790        3.78360        0.22300
C          1.39590        4.34760       -1.24780
C          1.22300        3.34780       -2.46270
C          0.12150        2.30190       -2.18480
C          0.51560       -1.04760       -1.60680
C          1.01050       -2.51790       -1.56480
C          0.14830       -3.44420       -0.67460
C         -1.29420       -3.50360       -1.20210
C         -1.87320       -2.10640       -1.20070
C         -1.00030       -1.13450       -2.03910
C         -0.01080       -0.60560        1.66290
C         -1.42910       -0.23320        1.88160
C         -2.33890        0.48540        0.94950
C         -2.18830       -0.56350        3.03390
C         -1.70240       -1.29790        4.06700
C         -2.54830       -1.69760        5.25990
C         -0.41730       -1.71030        3.98180
C          0.44320       -1.41950        2.87380
C          1.71650       -2.14640        3.24100
Pd         3.40060        0.02160       -0.07750
Br         3.40060       -2.31840        1.03260
C          3.40060        1.96410       -0.99900
C          4.31190        2.66920       -1.70220
N          5.50060        0.02160       -0.07750
C          6.33800       -1.03190        0.05020
N          7.65100       -0.66100       -0.08410
C          8.83480       -1.49830       -0.16760
C          8.75420       -2.91200       -0.09950
C          9.89830       -3.70130       -0.26470
C         11.13980       -3.10610       -0.48760
C         11.24070       -1.72000       -0.55790
C         10.10390       -0.92350       -0.40360
C          7.61940        0.67930       -0.15460
C          6.31720        1.09220       -0.14990
H         -1.01910        1.43150       -0.83440
H         -0.20860        2.51070        1.30860
H         -0.86670        3.53820       -0.00330
H          2.04850        3.23800        0.70300
H          1.11690        4.63840        0.92020
H          2.37360        4.88800       -1.31960
H          0.60930        5.10520       -1.37340
H          2.09110        2.77400       -2.81700
H          1.06460        3.92430       -3.39990
H          0.08850        1.54620       -2.99600
H         -0.78030        2.93460       -2.33410
H          1.05570       -0.54010       -2.43040
H          2.07350       -2.56080       -1.29030
H          0.94000       -2.93410       -2.59630
H          0.15430       -3.09020        0.37700
H          0.55400       -4.47680       -0.69680
H         -1.92220       -4.16440       -0.56110
H         -1.31730       -3.91240       -2.23560
H         -1.95010       -1.84260       -0.13870
H         -2.91340       -2.13100       -1.61170
H         -1.48510       -0.15050       -2.13040
H         -1.03210       -1.53580       -3.07590
H         -2.18940        0.17710       -0.05590
H         -2.46330        1.55110        1.21820
H         -3.34490        0.01270        0.97030
H         -3.22680       -0.26000        3.13380
H         -3.58690       -1.31390        5.18730
H         -2.10190       -1.32230        6.20710
H         -2.60460       -2.80790        5.32490
H         -0.11410       -2.30530        4.84160
H          1.78820       -2.65690        4.22600
H          2.58290       -1.45950        3.29830
H          1.71800       -3.07650        2.63460
H          2.46880        2.24070       -0.91340
H          5.29740        2.33260       -1.96500
H          4.06350        3.62810       -2.13570
H          6.01200       -2.06300        0.11670
H          7.81120       -3.40430        0.05170
H          9.82280       -4.78050       -0.22910
H         12.02590       -3.71540       -0.61650
H         12.20050       -1.25450       -0.74410
H         10.24210        0.14370       -0.48800
H          8.47400        1.33760       -0.22680
H          6.04950        2.11980       -0.12030
