83

P          0.95550        0.06190        0.06470
C         -0.04290        1.08600       -1.12850
C         -1.18530        0.63410       -1.83760
C         -1.70310        1.37250       -2.91020
C         -1.09780        2.56310       -3.30530
C         -0.01230        3.05700       -2.59660
C          0.48680        2.33490       -1.51350
C          0.44250       -1.48270       -0.77550
C          0.86960       -1.80190       -2.07870
C          0.30210       -2.88870       -2.76570
C         -0.69430       -3.66720       -2.15860
C         -1.12550       -3.36580       -0.88080
C         -0.57690       -2.27510       -0.20160
C          0.03480        0.38560        1.64360
C         -0.16710       -0.52270        2.74110
C          0.36120       -1.92520        2.84200
C         -0.96500       -0.12610        3.83340
C         -1.56650        1.12560        3.87350
C         -1.37090        2.01660        2.83160
C         -0.58230        1.65620        1.74250
Pd         3.41550        0.06190        0.06470
Br         3.41550       -1.77100        1.89450
C          3.41550        1.58350       -1.45430
C          3.36310        1.39670       -2.77250
C          5.56550        0.06190        0.06470
N          6.38920       -1.03820        0.20920
C          6.05510       -2.47880        0.25130
C          5.24150       -2.86650       -1.00010
C          4.80220       -4.33790       -0.97710
C          4.05620       -4.71720       -2.25720
C          7.65220       -0.56080        0.11550
C          7.60780        0.79470       -0.06820
C          8.77450        1.56680       -0.13970
C         10.01030        0.91120       -0.04820
C         10.05890       -0.49030        0.09330
C          8.87480       -1.23970        0.18090
N          6.32280        1.19940       -0.12750
C          5.92330        2.61800       -0.05680
C          6.07280        3.41660       -1.36900
C          5.64890        4.88140       -1.13910
C          5.59590        5.67750       -2.44100
H         -1.65650       -0.30810       -1.60830
H         -2.55130        0.99260       -3.46330
H         -1.47430        3.10610       -4.16760
H          0.45630        3.98170       -2.90120
H          1.32300        2.75160       -0.99890
H          1.59730       -1.18370       -2.58370
H          0.60010       -3.11430       -3.77960
H         -1.15020       -4.49470       -2.69450
H         -1.91870       -3.93720       -0.41290
H         -1.01070       -2.03000        0.74550
H          0.89170       -2.24580        1.93950
H         -0.48450       -2.63410        2.97570
H          1.02860       -2.01450        3.72540
H         -1.14230       -0.80550        4.65930
H         -2.19110        1.40310        4.71300
H         -1.83970        2.99210        2.86020
H         -0.47740        2.39870        0.96900
H          3.43060        2.60620       -1.11010
H          3.33090        0.41720       -3.22420
H          3.35480        2.28030       -3.41140
H          5.57630       -2.75960        1.18970
H          6.96560       -3.10720        0.24700
H          5.87360       -2.68300       -1.89840
H          4.33390       -2.22960       -1.07560
H          4.12950       -4.50430       -0.10790
H          5.68850       -5.00070       -0.87600
H          3.15530       -4.08170       -2.39150
H          3.73310       -5.77920       -2.20370
H          4.71900       -4.59830       -3.14150
H          8.74320        2.64080       -0.25890
H         10.92900        1.47620       -0.10790
H         11.01750       -0.99100        0.15420
H          8.94570       -2.30980        0.31490
H          6.55190        3.10960        0.72020
H          4.90780        2.69430        0.37270
H          7.11530        3.38770       -1.74380
H          5.43870        2.97850       -2.15470
H          6.36050        5.37110       -0.43700
H          4.63370        4.91850       -0.68550
H          6.58830        5.69600       -2.93540
H          5.28210        6.72310       -2.22820
H          4.84770        5.22760       -3.12950
