36

P          1.27500        0.00000        0.00000
O          0.31230        1.41580       -0.24160
C         -1.07130        1.20000       -0.23460
C         -1.39990       -0.25200        0.04290
C         -2.92680       -0.42710        0.07480
C         -0.72820       -1.08610       -1.11090
O          0.65860       -0.80840       -1.35770
O          0.66230       -0.30430        1.55250
C         -0.73630       -0.60390        1.42750
Pd         3.73500        0.00030       -0.00050
Br         3.73540       -2.55490        0.42240
C          3.73470        2.12150       -0.35150
C          3.17950        2.96150        0.52190
N          5.83500        0.00060       -0.00090
C          6.69760        1.11700        0.04120
Cl         6.30440        2.80440        0.33370
C          8.09830        0.97600       -0.02180
C          8.68110       -0.26030       -0.14540
C          7.86760       -1.36520       -0.18270
C          6.48390       -1.21880       -0.09710
H         -1.47860        1.51690       -1.22060
H         -1.51410        1.85900        0.54490
H         -3.37030       -0.11570       -0.89800
H         -3.37080        0.22250        0.86240
H         -3.20300       -1.47900        0.27790
H         -1.26780       -0.84570       -2.05440
H         -0.86490       -2.16910       -0.91290
H         -1.25920       -0.00910        2.20970
H         -0.90490       -1.67720        1.65150
H          4.15150        2.49910       -1.28060
H          2.74030        2.58580        1.43850
H          3.16650        4.02730        0.31540
H          8.74020        1.84770        0.02440
H          9.75360       -0.35650       -0.21270
H          8.31040       -2.34980       -0.29770
H          6.00970       -2.14830       -0.19760
