68

P          0.93290       -0.05780       -0.04640
C         -0.24410        0.10860        1.31590
C         -1.33610        0.98940        1.34790
C         -2.10570        1.09900        2.51980
C         -1.78130        0.35250        3.66040
C         -0.69040       -0.52070        3.63390
C          0.06490       -0.64040        2.47050
C          0.72020        1.46910       -0.98900
C          1.12430        2.68800       -0.41510
C          0.95590        3.88260       -1.09120
C          0.38080        3.89280       -2.36470
C         -0.04320        2.70770       -2.95240
C          0.13910        1.49510       -2.27980
C          0.41960       -1.67420       -0.70780
C          1.04940       -2.87950       -0.31280
O          2.07710       -2.84080        0.57770
C          2.69330       -3.95230        1.12530
C          0.56770       -4.10840       -0.82320
C         -0.52650       -4.14430       -1.68710
C         -1.17290       -2.96400       -2.03890
C         -0.71220       -1.74580       -1.54130
Pd         3.39290       -0.05780       -0.04640
Br         3.39290       -0.52170       -2.59460
C          3.39290        0.32720        2.06880
C          4.30140       -0.23250        2.86460
C          5.54290       -0.05780       -0.04640
N          6.29230       -1.06300       -0.37840
C          5.82310       -2.44350       -0.39380
C          6.86540       -3.41570        0.22510
C          7.69560       -0.70670       -0.21880
C          7.68470        0.80030       -0.18560
N          6.33720        1.09900        0.21710
C          5.91490        2.47570        0.42790
C          4.97700        2.98740       -0.66370
H         -1.58870        1.59120        0.48960
H         -2.94870        1.77650        2.55420
H         -2.36240        0.45310        4.56860
H         -0.42220       -1.08210        4.52040
H          0.92400       -1.30020        2.48740
H          1.57600        2.68730        0.56880
H          1.27810        4.82040       -0.63990
H          0.21320        4.84180       -2.87640
H         -0.50700        2.71990       -3.93200
H         -0.17950        0.60390       -2.78800
H          3.45040       -3.62890        1.86840
H          3.19660       -4.54320        0.33160
H          1.94680       -4.58870        1.65090
H          1.01920       -5.05200       -0.54830
H         -0.88840       -5.09120       -2.06580
H         -2.03890       -2.99530       -2.68370
H         -1.27210       -0.86530       -1.80280
H          2.55530        0.84540        2.52330
H          5.06600       -0.88250        2.45610
H          4.21700       -0.12410        3.94160
H          5.58290       -2.76090       -1.42000
H          4.91790       -2.53510        0.24720
H          7.81380       -3.41080       -0.35740
H          6.48970       -4.45680        0.24440
H          7.10790       -3.13280        1.28040
H          8.35730       -1.11930       -1.00750
H          8.02590       -1.06020        0.78680
H          7.81340        1.18550       -1.22830
H          8.47510        1.20990        0.47290
H          6.81930        3.13050        0.39150
H          5.45830        2.59050        1.42750
H          5.43180        2.87130       -1.67170
H          4.79080        4.07230       -0.49710
H          4.00980        2.45130       -0.62540
