87

P          1.07840       -0.00800        0.06150
C         -0.07910       -1.41540       -0.18350
C          0.74920        0.09260        1.85570
C         -0.04190        1.02790       -0.96130
Pd         3.53840       -0.00800        0.06150
Br         3.53840       -1.83590        1.89640
C          3.53840        1.50940       -1.46170
C          2.52490        1.82680       -2.28110
C          5.68840       -0.00800        0.06150
N          6.34810       -1.12740        0.13390
C          6.02340       -2.55350       -0.07400
C          5.00590       -3.10150       -1.02500
C          3.77940       -2.40770       -1.64630
C          3.71020       -2.35330       -3.18020
C          2.51560       -3.19130       -1.16050
C          5.06520       -4.45610       -1.41080
C          5.93800       -5.34730       -0.87030
C          6.77770       -4.95620        0.12280
C          6.84080       -3.61260        0.55680
C          7.71020       -3.44230        1.80790
C          9.22900       -3.30590        1.61760
C          6.93720       -2.69920        2.93060
C          7.71570       -0.73380        0.12690
C          7.79300        0.73830       -0.24710
N          6.50640        1.28000        0.06420
C          6.45230        2.65730        0.80300
C          5.42610        3.73230        0.63050
C          4.33740        3.58450       -0.24140
C          2.91600        4.10110        0.18820
C          4.91790        3.83540       -1.71650
C          5.39090        4.98240        1.23690
C          6.32800        5.36340        2.10010
C          7.35970        4.51120        2.34350
C          7.50240        3.21580        1.74120
C          8.81230        2.58330        2.27300
C          8.49840        1.33480        3.08420
C         10.05130        2.59940        1.31860
H         -1.11590       -1.22320        0.14730
H          0.29710       -2.29560        0.37920
H         -0.12360       -1.66410       -1.26420
H         -0.35220        0.05700        2.01520
H          1.11200        1.05530        2.26190
H          1.16880       -0.75760        2.41620
H         -1.10630        0.85370       -0.68140
H          0.05800        0.76670       -2.03540
H          0.13080        2.10270       -0.78460
H          4.33980        1.16040       -2.11010
H          1.84600        2.60820       -2.01450
H          2.70330        1.88760       -3.34780
H          3.70140       -1.38300       -1.33560
H          3.72140       -3.36160       -3.64040
H          4.52900       -1.73240       -3.58730
H          2.74250       -1.88040       -3.47590
H          2.48990       -4.26230       -1.44460
H          1.60670       -2.79500       -1.61840
H          2.41380       -3.19610       -0.06200
H          4.38880       -4.87200       -2.13770
H          5.90780       -6.38150       -1.18310
H          7.38030       -5.72490        0.57910
H          7.74110       -4.44800        2.29330
H          9.53940       -2.36900        1.13390
H          9.58510       -4.12390        0.95730
H          9.57330       -2.33860        1.22060
H          7.14250       -1.67200        3.26570
H          6.38770       -1.90830        2.44320
H          6.05660       -3.30110        3.27360
H          8.32780       -1.36540       -0.59570
H          8.07450       -0.86260        1.14810
H          7.97290        0.86150       -1.33930
H          8.51920        1.10540        0.31450
H          4.18840        2.61150        0.22760
H          2.74200        5.18220        0.06120
H          2.73930        3.81610        1.25280
H          2.06660        3.60060       -0.28640
H          5.13340        4.89590       -1.93600
H          4.32610        3.50980       -2.59610
H          5.87660        3.27340       -1.84750
H          4.61660        5.71240        1.03530
H          6.23980        6.33920        2.56790
H          8.06750        4.92530        3.04060
H          9.23740        3.24950        3.05610
H          7.89010        0.62890        2.51840
H          7.85470        1.62190        3.94680
H          9.42540        0.86410        3.46310
H         10.28090        1.76860        0.63190
H         10.97250        2.60080        1.93130
H         10.03180        3.52900        0.70790
