37

P          1.06120        0.04770        0.06310
C         -0.12930        1.40960        0.29910
C          0.76700       -0.17200       -1.72400
C          0.30240       -1.05820        1.29490
Pd         3.52120        0.04770        0.06310
Br         3.38680        1.99250       -1.47840
C          3.52630       -1.19200        1.71820
C          4.11630       -0.69660        2.81100
C          5.67120        0.04770        0.06310
N          6.41810       -0.96730        0.35150
C          5.97110       -2.32900        0.56690
C          7.81620       -0.66820        0.19610
C          7.82300        0.75500       -0.37100
N          6.44290        1.15900       -0.38700
C          6.10110        2.49140        0.09570
H         -1.17240        1.11660        0.08060
H          0.16780        2.24630       -0.37280
H         -0.04180        1.78710        1.34070
H         -0.32610       -0.23980       -1.90880
H          1.24120       -1.11340       -2.06570
H          1.15430        0.67720       -2.31510
H         -0.80110       -1.05220        1.12960
H          0.49820       -0.69810        2.32370
H          0.64870       -2.09900        1.15610
H          3.10880       -2.19500        1.72600
H          4.53930        0.30850        2.77850
H          4.20000       -1.25930        3.73300
H          4.91340       -2.47800        0.29300
H          6.22690       -2.68960        1.58090
H          6.48180       -2.98070       -0.18650
H          8.27200       -1.35970       -0.55830
H          8.33600       -0.75560        1.16480
H          8.19130        0.74010       -1.42760
H          8.48650        1.40450        0.23390
H          7.00270        3.04660        0.43700
H          5.40510        2.43910        0.96350
H          5.66980        3.09970       -0.71280
