59

P          0.91490        0.01330       -0.05080
C          0.43890       -1.32810        1.16440
C         -0.28110       -2.47820        0.74880
C         -0.68260       -3.47230        1.65400
C         -0.36800       -3.35160        3.00720
C          0.33260       -2.24290        3.45060
C          0.71770       -1.25080        2.54960
C          0.41780        1.71060        0.40860
C          0.29470        2.10550        1.75270
C         -0.14630        3.38490        2.09390
C         -0.48850        4.29300        1.09570
C         -0.38070        3.92400       -0.24410
C          0.07270        2.64490       -0.58930
C         -0.19730       -0.36060       -1.47610
C         -1.68730       -0.49580       -1.34090
C         -2.41140       -0.20790       -0.17420
C         -3.79500       -0.41730       -0.14710
C         -4.45880       -0.91690       -1.27450
C         -3.74440       -1.19810       -2.43720
C         -2.36830       -0.98620       -2.47130
Pd         3.37490        0.01330       -0.05080
Br         3.37490        0.59190        2.47370
C          3.37490       -0.46700       -2.14650
C          4.31230       -0.84390       -3.02800
N          5.47490        0.01330       -0.05080
C          6.21090        0.52950       -1.08850
O          5.56790        1.25150       -2.04450
C          6.14300        2.08400       -2.98350
C          7.61650        0.45330       -1.06390
C          8.25250       -0.15820        0.01230
C          7.49680       -0.62570        1.07960
C          6.10710       -0.48470        1.05230
H         -0.56030       -2.64280       -0.27490
H         -1.24020       -4.32540        1.31720
H         -0.67450       -4.11150        3.71410
H          0.57220       -2.13590        4.50230
H          1.20470       -0.44030        3.00490
H          0.52090        1.44900        2.56100
H         -0.23500        3.66490        3.13600
H         -0.84320        5.27890        1.36320
H         -0.65560        4.62890       -1.01660
H          0.13210        2.40440       -1.63770
H          0.17420       -1.33970       -1.85230
H          0.01890        0.34580       -2.30140
H         -1.91860        0.16580        0.70990
H         -4.35280       -0.20310        0.75260
H         -5.52570       -1.08750       -1.24740
H         -4.24920       -1.59110       -3.31290
H         -1.82420       -1.22370       -3.38010
H          2.37600       -0.43580       -2.56190
H          5.35270       -1.00080       -2.79970
H          4.01020       -1.03960       -4.05380
H          5.34130        2.52350       -3.61320
H          6.83360        1.51490       -3.63790
H          6.68260        2.91490       -2.47890
H          8.22220        0.87570       -1.85240
H          9.33060       -0.24760        0.02610
H          7.98060       -1.10940        1.91830
H          5.53720       -0.90030        1.86780
