62

P          1.02980       -0.07480       -0.05930
O          0.56130        1.10840        1.07740
C         -0.77830        1.47640        0.86180
C         -1.04950        2.77440        1.61460
O          0.79160       -0.32730       -1.72670
C          1.32610        0.82420       -2.35510
C          0.88480        0.91820       -3.80740
C          0.10450       -1.51400        0.51470
C         -0.85810       -2.23310       -0.21190
C         -1.41710       -3.39430        0.35060
C         -1.01470       -3.83880        1.61880
C         -0.05900       -3.12340        2.33730
C          0.49110       -1.96850        1.78870
Pd         3.48980       -0.07480       -0.05930
Br         3.48980       -2.26850       -1.43620
C          3.48980        1.74630        1.08360
C          2.65340        2.74900        0.80100
C          5.63980       -0.07480       -0.05930
N          6.47220       -0.74270       -0.97330
C          6.33510       -1.39490       -2.30810
C          6.21960       -2.93380       -2.30300
C          5.50000       -0.58280       -3.31830
C          7.73700       -0.48860       -0.58840
C          7.74560        0.29950        0.48660
N          6.48350        0.60780        0.83480
C          6.26710        1.47610        2.01800
C          5.53210        0.69640        3.14820
C          7.49420        2.13700        2.67630
H         -1.45120        0.69220        1.27090
H         -1.00010        1.66320       -0.21370
H         -0.80280        2.65330        2.69160
H         -2.12060        3.05180        1.52350
H         -0.43000        3.59760        1.19750
H          2.43690        0.78120       -2.33040
H          0.96790        1.77170       -1.88530
H          1.18890        0.01180       -4.36790
H          1.36750        1.80610       -4.27420
H         -0.21640        1.04930       -3.86930
H         -1.16440       -1.91110       -1.19580
H         -2.15580       -3.96230       -0.20050
H         -1.42930       -4.74480        2.04130
H          0.26950       -3.46730        3.31240
H          1.25130       -1.44030        2.35460
H          3.97650        1.98930        1.96350
H          1.99630        2.72400       -0.05400
H          2.62560        3.63330        1.43690
H          7.32230       -1.29250       -2.82640
H          5.41800       -3.26920       -2.99570
H          6.06140       -3.32120       -1.27520
H          7.13860       -3.41530       -2.69890
H          4.44050       -0.46630       -3.04930
H          5.55630       -1.05610       -4.32340
H          5.91600        0.44540       -3.40530
H          8.63190       -0.82480       -1.09900
H          8.65420        0.64670        0.96450
H          5.81390        2.39520        1.60020
H          6.19550       -0.05680        3.61520
H          4.64200        0.13540        2.79140
H          5.19550        1.40590        3.94040
H          8.11120        1.40330        3.23210
H          7.13170        2.89950        3.40660
H          8.11000        2.68170        1.93160
