39

P          1.48870        0.03810       -0.00430
N          0.60750        1.44700       -0.38430
C         -0.81730        1.37810       -0.32900
C         -1.28580       -0.02620       -0.01790
C         -2.80900       -0.01120       -0.00240
C         -0.73470       -0.97890       -1.09390
N          0.75130       -1.01870       -1.17220
N          0.74160       -0.42390        1.50630
C         -0.74190       -0.42710        1.38060
Pd         3.82670       -0.00440        0.00420
Br         3.54260        1.91250        1.68800
C          3.79440       -1.72090       -1.25620
C          3.24300       -1.77670       -2.46470
O          5.78270       -0.03700        0.03720
C          6.22940        0.04930        1.37030
C          5.76640       -1.20060        2.10370
C          7.74310       -0.01050        1.37780
H          1.06240        1.75130       -1.28250
H         -1.17690        1.73630       -1.30200
H         -1.12540        2.10680        0.45690
H         -3.17740        0.31630       -0.99030
H         -3.17250        0.69750        0.77120
H         -3.17710       -1.02070        0.22140
H         -1.13830       -0.66140       -2.06900
H         -1.12210       -1.98630       -0.86130
H          1.04860       -0.63550       -2.05970
H          1.09850        0.26360        2.17050
H         -1.14170        0.25390        2.15030
H         -1.12010       -1.44660        1.60070
H          4.19030       -2.65180       -0.87770
H          2.83450       -0.91600       -2.90750
H          3.18100       -2.65660       -3.07960
H          5.89710        0.93270        1.89880
H          6.06930       -2.15230        1.58340
H          4.69140       -1.09850        2.21910
H          6.10380       -1.25020        3.14580
H          8.12810       -0.92920        0.88130
H          8.11200       -0.01870        2.42570
H          8.14400        0.87090        0.86730
