67

P          1.00460        0.09990       -0.00130
C          0.52820        0.08360       -1.86160
C          1.07190        1.31330       -2.65730
C          2.60190        1.27340       -2.89640
C          2.94490        0.10110       -3.82040
C          2.48780       -1.17810       -3.14110
C          0.98640       -1.15210       -2.72260
C          0.23880       -1.59510        0.46510
C          0.35020       -1.95880        1.99420
C         -0.70110       -1.29800        2.92380
C         -2.13570       -1.49480        2.37760
C         -2.33000       -1.19480        0.86140
C         -1.23460       -1.89990        0.04640
C          0.38260        1.81800        0.59470
C          0.80800        3.19140        0.33440
C          1.94700        3.64550       -0.51640
C          0.12590        4.27750        0.93380
C         -0.95110        4.08790        1.78200
C         -1.37370        2.81240        2.04470
C         -0.71910        1.74050        1.45450
Pd         3.46460        0.09990       -0.00130
Br         3.38290       -2.42590       -0.19180
C          3.41560        1.69150        1.32750
C          3.06540        1.46950        2.59390
N          5.56460        0.09990       -0.00130
C          6.29780        1.03850        0.68140
C          7.69180        1.03770        0.64550
F          8.39320        1.94350        1.37190
C          8.35310        0.11170       -0.14890
C          7.61350       -0.82890       -0.86360
C          6.21800       -0.83270       -0.75850
H         -0.57780        0.13790       -1.88090
H          0.74350        2.23760       -2.16830
H          0.59080        1.34870       -3.65750
H          3.18200        1.15940       -1.96990
H          2.94310        2.20740       -3.40900
H          4.04980        0.05610       -3.98800
H          2.45450        0.21830       -4.80710
H          3.13920       -1.23610       -2.29130
H          2.69900       -2.04750       -3.79680
H          0.69960       -2.10680       -2.25320
H          0.42830       -1.10460       -3.68450
H          0.82290       -2.34100       -0.08040
H          1.36760       -1.77860        2.38270
H          0.15060       -3.05270        2.07570
H         -0.40750       -0.26770        3.14660
H         -0.65480       -1.75340        3.93990
H         -2.88180       -0.89030        2.97680
H         -2.40380       -2.55210        2.52230
H         -2.38220       -0.13830        0.56470
H         -3.33270       -1.57150        0.55730
H         -1.40620       -1.73820       -1.03520
H         -1.40280       -2.98770        0.21900
H          2.53670        2.81760       -0.89410
H          2.62650        4.28430        0.08450
H          1.55640        4.26190       -1.35670
H          0.43520        5.30050        0.75050
H         -1.45600        4.93260        2.23950
H         -2.21540        2.63790        2.70750
H         -1.10470        0.83080        1.69910
H          3.88590        2.64040        1.10370
H          2.75620        0.47970        2.91090
H          3.18210        2.25620        3.33460
H          5.84590        1.77800        1.30930
H          9.43410        0.12210       -0.20990
H          8.11890       -1.53290       -1.51020
H          5.66500       -1.54650       -1.34710
