74

C          0.90100       -0.64300       -0.00200
N          0.94960        0.67140        0.35310
C          2.11070        1.49480        0.71070
C          2.17270        2.71570       -0.23050
C          2.01380        1.96830        2.16400
C         -0.31550        1.12620        0.28610
C         -1.11610        0.13680       -0.15860
N         -0.37390       -0.97080       -0.36800
C         -0.95560       -2.17840       -0.99220
C         -2.13960       -2.70490       -0.16060
C         -1.45140       -1.81480       -2.42430
Pd         2.65840       -1.88140       -0.01350
Br         2.14780       -2.62860        2.41320
C          3.08230       -1.26120       -2.02800
C          2.33940       -0.38130       -2.71210
C          4.41590       -3.11990       -0.02500
N          4.43460       -4.48380        0.04690
C          3.20350       -5.30840        0.07340
C          3.46300       -6.82050       -0.06290
C          2.21010       -7.68600       -0.12280
C          2.60910       -9.15990       -0.26840
C          5.76880       -4.80930       -0.01790
C          6.51420       -3.65720       -0.12970
C          7.91940       -3.68460       -0.15780
C          8.57020       -4.92210       -0.10030
C          7.82610       -6.10600       -0.03670
C          6.42550       -6.06670        0.00610
N          5.70110       -2.57720       -0.19040
C          6.24010       -1.15210       -0.12560
C          6.52120       -0.36880       -1.43750
C          5.45660        0.29430       -2.02500
C          5.52980        0.93280       -3.25970
C          6.75380        1.05480       -3.89460
C          7.89980        0.56370       -3.25960
C          7.79340       -0.15720       -2.04070
H          3.04030        0.89810        0.59270
H          1.26780        3.35490       -0.11730
H          2.22650        2.39190       -1.29110
H          3.05470        3.34990       -0.00560
H          1.09210        2.56720        2.32720
H          2.89120        2.60300        2.41320
H          2.00110        1.09570        2.84840
H         -0.62640        2.14460        0.52260
H         -2.17540        0.23350       -0.35660
H         -0.21340       -3.00120       -1.07750
H         -2.93650       -1.93900       -0.04750
H         -1.79700       -3.02560        0.84240
H         -2.59800       -3.58240       -0.67010
H         -1.63170       -0.72330       -2.54680
H         -2.41070       -2.31190       -2.68890
H         -0.69480       -2.09690       -3.18430
H          3.94590       -1.70320       -2.51470
H          1.47890        0.11120       -2.28780
H          2.61080       -0.11140       -3.72560
H          2.57850       -5.00640       -0.79730
H          2.62720       -5.11840        1.00450
H          4.03110       -7.14990        0.82390
H          4.02340       -6.98880       -1.01710
H          1.57540       -7.39860       -0.98970
H          1.62910       -7.55770        0.81350
H          3.16670       -9.32310       -1.21740
H          1.70580       -9.80590       -0.27680
H          3.25790       -9.47400        0.57810
H          8.51690       -2.78720       -0.22400
H          9.65160       -4.96980       -0.11430
H          8.33740       -7.06090       -0.01100
H          5.95380       -7.02600        0.05880
H          7.19410       -1.16400        0.44230
H          5.60600       -0.53790        0.54510
H          4.55520        0.32540       -1.48060
H          4.63470        1.34850       -3.70650
H          6.80640        1.57090       -4.84820
H          8.85950        0.74260       -3.73010
H          8.70220       -0.52730       -1.58700
