56

C          0.90100       -0.64300       -0.00200
N         -0.44010       -0.99980       -0.00050
C         -1.04610       -2.34340       -0.19710
C         -0.81780       -3.25810        1.00150
C         -1.76570       -2.89790        2.15640
C         -3.21730       -3.15730        1.73230
C         -3.58380       -2.23670        0.56480
C         -2.56880       -2.38140       -0.59390
C         -1.11320        0.16310        0.08930
C         -0.22210        1.20620        0.10320
N          1.03890        0.71530        0.01790
C          2.32830        1.43640       -0.14270
C          2.59400        1.67240       -1.64280
C          1.65770        2.72220       -2.23830
C          1.94700        4.06230       -1.57480
C          1.71810        3.98630       -0.05670
C          2.50210        2.80370        0.58700
Pd         2.65840       -1.88140       -0.01350
Br         2.78600       -1.67650       -2.59220
C          2.55260       -2.05160        2.12710
C          1.57270       -1.51820        2.86640
O          4.33420       -3.06230       -0.02450
C          5.02110       -3.56980        0.99410
N          6.04040       -4.34870        0.58620
C          5.96860       -4.32420       -0.74870
C          4.92340       -3.51630       -1.11710
H         -0.51580       -2.74830       -1.08900
H          0.24150       -3.21210        1.29980
H         -1.02940       -4.30880        0.69710
H         -1.64330       -1.83270        2.45940
H         -1.53390       -3.54210        3.02720
H         -3.91520       -2.97820        2.57730
H         -3.32210       -4.22410        1.42440
H         -3.62590       -1.19740        0.93710
H         -4.60850       -2.49960        0.20880
H         -2.81860       -1.65870       -1.40900
H         -2.76100       -3.39520       -1.01610
H         -2.18070        0.28070        0.09450
H         -0.50950        2.23190        0.14730
H          3.12140        0.75660        0.24530
H          2.42950        0.76150       -2.20200
H          3.64980        1.98730       -1.80020
H          0.59660        2.42600       -2.10290
H          1.84430        2.80060       -3.32980
H          1.28790        4.84720       -2.01020
H          2.99980        4.34070       -1.78630
H          0.64670        3.90380        0.14500
H          2.04180        4.94160        0.40980
H          2.29080        2.72190        1.67230
H          3.57850        3.07350        0.48310
H          3.27270       -2.55170        2.72940
H          0.75250       -0.95760        2.45050
H          1.58680       -1.63690        3.94600
H          4.88080       -3.41720        2.03570
H          6.62590       -4.87440       -1.40830
H          4.64440       -3.36200       -2.13940
