75

C          0.90100       -0.64300       -0.00200
N         -0.40660       -1.03760        0.19450
C         -1.10550       -2.29710        0.49680
C         -2.23500       -2.27040        1.38730
C         -2.73400       -1.05390        2.13290
C         -2.94750       -3.43370        1.67820
C         -2.56510       -4.66380        1.17200
C         -3.32040       -5.89460        1.60910
C         -1.48430       -4.72510        0.28240
C         -0.77120       -3.55200       -0.09290
C          0.26410       -3.67040       -1.17430
C         -1.11680        0.06990       -0.03210
C         -0.29720        1.11620       -0.24660
N          0.98790        0.71890       -0.23420
C          2.13320        1.67500       -0.34960
C          3.40440        1.49510        0.32650
C          3.76090        0.38580        1.27190
C          4.44080        2.45010        0.19790
C          4.28530        3.60200       -0.55970
C          5.37660        4.63280       -0.68850
C          3.08420        3.81700       -1.20090
C          2.01430        2.90780       -1.11260
C          0.79130        3.35700       -1.86870
Pd         2.65840       -1.88140       -0.01350
Br         3.27560       -0.98380       -2.36330
C          2.14610       -2.62660        1.93710
C          2.90170       -3.27850        2.82200
N          4.37500       -3.09110       -0.02470
C          4.66230       -4.30170        0.43470
C          3.79950       -5.41960        1.02730
C          2.44130       -5.59930        0.73710
C          1.71600       -6.69570        1.23250
C          2.33850       -7.64430        2.03330
C          3.68510       -7.49730        2.34560
C          4.40800       -6.40770        1.84310
N          6.00800       -4.64770        0.18010
C          6.58790       -3.68770       -0.68420
C          5.58300       -2.54920       -0.63880
H         -2.04030       -0.19890        2.14950
H         -2.84630       -1.30720        3.20420
H         -3.72290       -0.74570        1.72490
H         -3.79480       -3.37940        2.35350
H         -4.16200       -5.63550        2.29280
H         -2.63800       -6.56110        2.17700
H         -3.74540       -6.44300        0.74520
H         -1.22440       -5.69010       -0.13810
H          0.40220       -4.73060       -1.49340
H          1.22270       -3.25460       -0.84660
H         -0.05050       -3.10410       -2.07080
H         -2.19310        0.15060       -0.03670
H         -0.69490        2.09270       -0.35300
H          2.93660       -0.29260        1.46790
H          4.04640        0.81610        2.25960
H          4.64540       -0.15910        0.88910
H          5.38380        2.30450        0.71850
H          6.29270        4.35370       -0.12740
H          5.01800        5.61370       -0.30620
H          5.64380        4.75260       -1.76100
H          2.98240        4.73760       -1.76910
H          0.98890        4.23320       -2.52190
H          0.03870        3.77100       -1.16940
H          0.41610        2.54360       -2.51900
H          1.13850       -2.38740        2.25880
H          3.94040       -3.50300        2.66170
H          2.47310       -3.56840        3.77630
H          1.96230       -4.92160        0.10330
H          0.66800       -6.82860        0.96860
H          1.78020       -8.49360        2.40510
H          4.17200       -8.24160        2.96340
H          5.45130       -6.35490        2.10870
H          6.42730       -5.57740        0.32740
H          6.60690       -4.14890       -1.69690
H          7.61050       -3.38410       -0.37700
H          5.47670       -2.14920       -1.65660
H          5.96420       -1.76050        0.04200
