48

C          0.90100       -0.64300       -0.00200
N         -0.36260       -1.10380        0.08060
C         -0.78430       -2.50860        0.08510
C         -1.62840       -2.81680        1.32050
C         -1.57260       -2.81630       -1.19970
C         -1.15610       -0.01090        0.05500
C         -0.35300        1.10700       -0.02580
N          0.93360        0.70170       -0.06520
C          2.13320        1.54550       -0.07390
C          2.15470        2.45210       -1.30640
C          2.18680        2.38560        1.21260
Pd         2.65840       -1.88140       -0.01350
Br         2.65950       -1.85590       -2.60340
C          2.65760       -1.90270        2.13640
C          3.28440       -2.54980        3.13930
N          4.37500       -3.09110       -0.02470
C          5.27480       -3.06640        1.00620
C          6.50560       -3.72050        0.94960
C          6.83010       -4.48180       -0.16560
C          8.14080       -5.20250       -0.25380
C          5.93010       -4.51860       -1.22580
C          4.74780       -3.77250       -1.15810
H          0.11520       -3.16410        0.09240
H         -2.54520       -2.18920        1.33380
H         -1.03680       -2.61610        2.23660
H         -1.93170       -3.88540        1.31500
H         -2.49020       -2.19280       -1.26700
H         -1.87100       -3.88600       -1.22840
H         -0.94320       -2.60910       -2.09280
H         -2.23820       -0.02350        0.08680
H         -0.68570        2.13690       -0.04520
H          3.03970        0.90090       -0.09390
H          1.27210        3.12790       -1.31250
H          2.14560        1.83400       -2.23080
H          3.07680        3.07620       -1.30320
H          1.30790        3.06020        1.28630
H          3.10890        3.00420        1.23500
H          2.19480        1.71920        2.10060
H          1.86320       -1.25990        2.50360
H          3.99840       -3.35210        3.04830
H          3.00170       -2.33850        4.16390
H          5.19210       -2.36710        1.80240
H          7.21430       -3.59430        1.76000
H          8.77870       -4.99400        0.63200
H          8.68870       -4.86790       -1.16030
H          7.96200       -6.29520       -0.31440
H          6.15100       -5.09850       -2.11330
H          4.10050       -3.84680       -2.00640
