59

C          0.90100       -0.64300       -0.00200
N         -0.43910       -0.98160       -0.03760
C         -1.09180       -2.30300       -0.23330
C         -0.86470       -3.22330        0.97450
C         -1.74900       -2.80860        2.16860
C         -3.23150       -2.97500        1.80190
C         -3.58270       -2.03940        0.64630
C         -2.63540       -2.27600       -0.55780
C         -1.09770        0.19180        0.06520
C         -0.19880        1.21270        0.14440
N          1.05690        0.71370        0.07970
C          2.35130        1.43320       -0.05800
C          2.60930        1.71160       -1.54830
C          1.65770        2.77010       -2.11280
C          1.92720        4.09730       -1.40390
C          1.71930        3.96980        0.11460
C          2.50930        2.77870        0.71610
Pd         2.65840       -1.88140       -0.01350
Br         2.78600       -1.67650       -2.59220
C          2.55260       -2.05160        2.12710
C          1.59760       -1.53500        2.90370
O          4.33420       -3.06230       -0.02450
C          4.00060       -4.42180       -0.04270
C          3.16930       -4.76450       -1.27710
C          5.31330       -5.21360       -0.07850
H         -0.60670       -2.73220       -1.13290
H          0.20600       -3.22440        1.23970
H         -1.14190       -4.26240        0.68960
H         -1.55090       -1.75420        2.46400
H         -1.52320       -3.46400        3.03360
H         -3.88110       -2.74360        2.67540
H         -3.42250       -4.03210        1.51010
H         -3.53810       -0.99960        1.01700
H         -4.64120       -2.21920        0.33590
H         -2.87290       -1.55780       -1.37510
H         -2.89860       -3.28670       -0.94200
H         -2.16400        0.33290        0.06330
H         -0.49520        2.23580        0.20710
H          3.13480        0.73410        0.31390
H          2.46860        0.80260       -2.13170
H          3.66030        2.04260       -1.69300
H          0.59460        2.45480       -1.99940
H          1.84870        2.88420       -3.20140
H          1.26240        4.88370       -1.81580
H          2.97960        4.38880       -1.61240
H          0.64810        3.89030        0.32020
H          2.03840        4.91480        0.60290
H          2.29280        2.65690        1.79770
H          3.58240        3.05250        0.62200
H          3.35780       -2.59940        2.60570
H          0.77000       -0.96790        2.50730
H          1.64700       -1.67830        3.97840
H          3.44460       -4.68930        0.88050
H          3.71910       -4.49100       -2.20440
H          2.20190       -4.22380       -1.24690
H          2.95780       -5.85490       -1.30770
H          5.90340       -4.94500       -0.98370
H          5.11970       -6.30690       -0.09450
H          5.92750       -4.97540        0.81570
