37

C          0.90100       -0.64300       -0.00200
N         -0.40060       -1.08200       -0.09790
C         -1.08880       -2.39050       -0.06480
C         -0.24250       -3.63990        0.09400
C         -1.16800        0.02360       -0.01420
C         -0.37010        1.11990        0.10030
N          0.91280        0.71630        0.11220
C          2.02740        1.66320        0.02250
C          2.73070        1.49720       -1.33080
Pd         2.65840       -1.88140       -0.01350
Br         1.99010       -2.84540       -2.22470
C          3.29300       -1.09280        1.84550
C          2.51000       -0.42700        2.67720
C          4.41590       -3.11990       -0.02500
N          4.65060       -4.06540       -0.97270
H          4.07520       -4.34040       -1.79160
C          5.81170       -4.65960       -0.64830
Cl         6.54940       -5.97830       -1.53800
C          6.29700       -4.07470        0.48400
Cl         7.78410       -4.47430        1.32640
N          5.43840       -3.12330        0.87760
H         -1.75670       -2.49300       -0.94500
H         -1.73880       -2.38390        0.84400
H          0.26640       -3.88150       -0.82550
H         -0.91540       -4.51150        0.23580
H          0.45380       -3.56560        0.95410
H         -2.25210        0.03010       -0.01670
H         -0.71000        2.14710        0.14450
H          2.73710        1.56660        0.86090
H          1.61820        2.70180        0.03070
H          3.25690        0.52200       -1.37550
H          3.46520        2.31500       -1.48900
H          1.99260        1.53930       -2.16550
H          4.26430       -1.26930        2.25940
H          1.46370       -0.26500        2.46070
H          2.89430       -0.12150        3.64810
H          5.63190       -2.56680        1.72560
