71

C          0.90100       -0.64300       -0.00200
N          0.49230        0.22080       -1.01670
C          0.97540        0.56590       -2.37010
C          1.89980        1.77010       -2.41490
C          1.30050       -0.69600       -3.16730
C         -0.71110        0.70980       -0.66790
C         -1.15010        0.05460        0.41430
N         -0.24890       -0.87620        0.78050
C         -0.69760       -2.01660        1.64830
C         -2.03170       -1.73060        2.42550
C         -1.05590       -3.21870        0.72930
Pd         2.65840       -1.88140       -0.01350
Br         3.94710       -0.06500        1.30860
C          1.58870       -3.38930       -1.11100
C          2.07590       -4.26630       -2.00990
C          4.41590       -3.11990       -0.02500
N          4.45500       -4.54320       -0.07500
C          3.36630       -5.62040        0.08560
C          3.53350       -6.88290       -0.79080
C          2.95210       -5.90520        1.52740
C          5.80080       -4.88090       -0.04380
C          6.54870       -3.76420        0.07010
C          7.96300       -3.85310        0.07890
C          8.60200       -5.08240       -0.00170
C          7.83410       -6.23550       -0.05930
C          6.43650       -6.14620       -0.07640
N          5.75890       -2.67500        0.18140
C          6.46350       -1.35420        0.33740
C          6.20780       -0.46460       -0.83000
C          5.81180        0.85960       -0.62690
C          5.22980        1.56920       -1.65360
C          5.14330        1.00250       -2.92500
C          5.71460       -0.25000       -3.17480
C          6.25230       -0.99000       -2.12460
H          0.11440        0.95000       -2.96280
H          2.70100        1.73040       -1.67080
H          1.29670        2.67350       -2.17260
H          2.27580        1.90390       -3.45350
H          2.14180       -1.27360       -2.74960
H          1.49880       -0.43410       -4.22780
H          0.38330       -1.33880       -3.17230
H         -1.29120        1.42530       -1.23740
H         -2.15110        0.20890        0.79130
H          0.08770       -2.28840        2.37630
H         -2.90230       -1.55650        1.74310
H         -1.94330       -0.85570        3.09870
H         -2.34810       -2.60600        3.03380
H         -1.86910       -2.93600        0.01260
H         -1.48260       -4.05430        1.32970
H         -1.34200       -4.14330        1.27740
H          0.52570       -3.24170       -1.23350
H          3.13220       -4.37080       -2.21110
H          1.37940       -4.84440       -2.61450
H          2.41640       -5.26490       -0.10790
H          4.06810       -7.69440       -0.26700
H          4.00670       -6.64290       -1.76780
H          2.54630       -7.34340       -0.99040
H          3.73860       -6.38520        2.13110
H          2.05690       -6.58140        1.51230
H          2.61270       -4.95660        2.01370
H          8.66070       -3.02310        0.13440
H          9.68660       -5.14190        0.00520
H          8.33030       -7.19570       -0.09630
H          5.95360       -7.08540       -0.12700
H          7.55990       -1.41030        0.39650
H          6.29240       -0.92020        1.33730
H          5.85050        1.31110        0.35800
H          4.80500        2.53780       -1.42740
H          4.63900        1.53600       -3.71270
H          5.69070       -0.67240       -4.16710
H          6.63850       -1.98680       -2.30440
