65

C          0.90100       -0.64300       -0.00200
N         -0.38620       -1.17230        0.08370
C         -0.96140       -2.55790        0.30410
C         -2.20100       -2.74570        1.04830
C         -3.07410       -1.64360        1.58780
C         -2.69410       -4.03710        1.34570
C         -2.05100       -5.18440        0.92860
C         -2.57760       -6.55170        1.27630
C         -0.91220       -5.05900        0.16840
C         -0.36800       -3.79750       -0.15280
C          0.79290       -3.89580       -1.04740
C         -1.15300       -0.07180       -0.01700
C         -0.39140        1.05060       -0.10850
N          0.92530        0.76170       -0.13660
C          2.02970        1.81690       -0.22450
C          1.81860        3.27920       -0.34370
C          0.56100        4.07200       -0.63470
C          2.91620        4.17670       -0.22760
C          4.21790        3.75030       -0.05480
C          5.38850        4.67500        0.11550
C          4.46350        2.41500       -0.06480
C          3.43710        1.48110       -0.16080
C          3.94730        0.14090       -0.18470
Pd         2.65840       -1.88140       -0.01350
Br         2.56630       -1.98820       -2.59970
C          2.73500       -1.79280        2.13330
C          1.79500       -1.22740        2.89660
N          4.37500       -3.09110       -0.02470
C          5.48330       -2.90980        0.79520
Cl         5.74440       -1.55260        1.89300
C          6.60050       -3.74480        0.68150
C          6.60500       -4.78130       -0.23630
C          5.50440       -4.96350       -1.05890
C          4.41230       -4.09850       -0.95360
H         -2.47650       -0.90370        2.15390
H         -3.86120       -2.01530        2.27660
H         -3.66410       -1.21030        0.75410
H         -3.60760       -4.15990        1.91420
H         -3.49440       -6.49140        1.90000
H         -1.80780       -7.10830        1.85310
H         -2.81730       -7.12360        0.35480
H         -0.44470       -5.97520       -0.18060
H          1.06620       -4.93120       -1.35070
H          1.65710       -3.52800       -0.51650
H          0.50110       -3.37830       -1.97970
H         -2.21450       -0.01290       -0.03550
H         -0.87710        1.98200       -0.12960
H         -0.33480        3.59540       -1.01760
H          0.78110        4.72580       -1.50980
H          0.32140        4.73920        0.22140
H          2.75580        5.24980       -0.28080
H          5.08870        5.73850        0.09410
H          6.14300        4.48390       -0.67940
H          5.86630        4.45950        1.09930
H          5.50080        2.09940        0.02200
H          5.04720        0.01920       -0.21410
H          3.58140       -0.28040       -1.10690
H          3.61140       -0.22760        0.75380
H          3.54380       -2.24370        2.67550
H          0.91950       -0.74450        2.49270
H          1.90810       -1.23490        3.97660
H          7.47920       -3.57360        1.29270
H          7.46930       -5.42750       -0.32010
H          5.49860       -5.76970       -1.78050
H          3.57530       -4.28030       -1.60390
