44

C          1.02400       -0.65300       -0.05500
N         -0.12430       -0.99950       -0.49800
C         -0.36060       -2.19040       -1.27980
C         -1.15010       -0.03350       -0.15170
C         -0.40340        0.97180        0.75410
N          0.97830        0.54130        0.67080
C          2.08550        1.17260        1.33560
Pd         2.78020       -1.86970       -0.29550
Br         3.28660       -0.69380       -2.54690
C          2.35980       -2.84590        1.57350
C          1.30170       -2.59800        2.34920
P          4.78960       -3.26190       -0.57060
N          6.02370       -3.58500       -1.81050
C          6.55320       -2.37810       -2.48490
C          6.90930       -4.72330       -1.75920
O          5.81490       -2.12980        0.18510
C          5.71170       -2.32030        1.57710
O          4.35530       -4.80710       -0.02300
C          3.30570       -5.21430       -0.88210
H          0.57740       -2.76930       -1.43030
H         -0.76210       -1.90610       -2.27040
H         -1.09960       -2.83950       -0.75880
H         -1.99120       -0.50870        0.38420
H         -1.50260        0.44750       -1.09390
H         -0.73280        0.86750        1.81160
H         -0.54970        2.01650        0.40310
H          1.74070        2.07140        1.89290
H          2.83720        1.49270        0.58120
H          2.54410        0.45910        2.04670
H          3.06380       -3.59590        1.91460
H          0.54890       -1.86750        2.09670
H          1.18100       -3.14450        3.27900
H          5.86690       -1.51370       -2.39130
H          6.66370       -2.56800       -3.57550
H          7.52590       -2.07760       -2.04990
H          6.35640       -5.62210       -1.42830
H          7.77890       -4.50400       -1.11530
H          7.26290       -4.93010       -2.79670
H          6.64390       -1.95940        2.05610
H          5.62570       -3.38940        1.88650
H          4.86600       -1.72310        1.97580
H          3.11670       -6.29700       -0.74900
H          3.55130       -5.09050       -1.96700
H          2.36220       -4.67230       -0.64370
