65

C          0.90100       -0.64300       -0.00200
N         -0.40260       -1.07220       -0.01160
C         -0.83230       -2.46390       -0.31240
C         -0.46180       -3.44890        0.78180
C         -1.53650       -3.50370        1.87870
C         -2.83690       -4.04650        1.27610
C         -3.36890       -3.05430        0.23420
C         -2.29800       -2.73070       -0.83530
C         -1.15010        0.05060        0.04240
C         -0.30020        1.14720        0.01620
N          0.97640        0.71040       -0.07340
C          2.24270        1.45630       -0.30350
C          2.41140        1.67650       -1.81860
C          1.45770        2.74160       -2.35950
C          1.79690        4.08160       -1.70530
C          1.64270        3.99640       -0.18100
C          2.45620        2.82360        0.41780
Pd         2.65840       -1.88140       -0.01350
Br         2.73520       -1.74850       -2.59890
C          2.59470       -1.99180        2.13270
C          1.77760       -1.26240        2.89820
N          4.37500       -3.09110       -0.02470
C          5.23470       -3.12500        1.08950
C          5.36160       -2.00390        2.10180
C          6.31080       -4.01910        1.19480
C          6.60640       -4.88210        0.17720
C          5.84580       -4.83370       -0.95390
C          4.76490       -3.93330       -1.08960
C          3.93120       -4.30650       -2.29080
H         -0.21440       -2.70130       -1.20700
H          0.52840       -3.20220        1.18880
H         -0.39100       -4.46710        0.33640
H         -1.70670       -2.49520        2.32410
H         -1.19580       -4.19260        2.67940
H         -3.60400       -4.20610        2.06550
H         -2.63360       -5.03840        0.80940
H         -3.70180       -2.13670        0.75230
H         -4.26500       -3.50920       -0.25810
H         -2.66610       -1.95720       -1.54270
H         -2.23140       -3.67410       -1.42530
H         -2.23070        0.09200        0.03220
H         -0.62640        2.17050        0.00730
H          3.06730        0.77870        0.02260
H          2.20350        0.74730       -2.35850
H          3.45940        1.97610       -2.04650
H          0.40300        2.46210       -2.16170
H          1.58150        2.81270       -3.46150
H          1.13620        4.87230       -2.11870
H          2.84850        4.33990       -1.97580
H          0.57730        3.89330        0.06670
H          1.98320        4.95750        0.26370
H          2.30830        2.74390        1.51670
H          3.52720        3.09370        0.25930
H          3.15720       -2.74600        2.65640
H          1.10700       -0.51820        2.49750
H          1.76110       -1.42930        3.97120
H          4.77430       -1.10540        1.83460
H          6.39960       -1.60460        2.04910
H          5.22220       -2.35310        3.14710
H          6.97580       -3.99840        2.05380
H          7.42640       -5.57810        0.27020
H          6.09290       -5.55210       -1.73300
H          4.07520       -5.36430       -2.60220
H          4.26890       -3.74590       -3.18840
H          2.84930       -4.30020       -2.04270
