88

P          1.27500        0.00000        0.00000
N          0.30100        1.51110       -0.11590
C          0.79660        2.58960        0.79300
C          0.19620        3.97150        0.46530
C          0.55440        2.31060        2.28870
C         -1.14240        1.40250       -0.25550
C         -1.55180       -0.01880       -0.08480
C         -3.09830       -0.09220       -0.12700
C         -0.93760       -0.88090       -1.23740
N          0.56380       -0.84550       -1.41960
C          1.02910       -2.27280       -1.49230
C          0.39090       -3.12170       -2.62350
C          2.52850       -2.40420       -1.65090
N          0.41910       -0.68660        1.49700
C          0.50280       -2.15800        1.95060
C          1.84210       -2.88370        2.04290
C         -0.13450       -2.35000        3.36290
C         -1.06700       -0.47510        1.31810
Pd         3.73500        0.00030       -0.00050
Br         3.73440        1.01510       -2.38340
C          3.73550       -0.84200        1.97770
C          3.35930       -0.15940        3.05830
C          5.88500        0.00060       -0.00090
N          6.62530        1.12450        0.27490
C          6.23230        2.50350        0.64270
C          4.73060        2.60510        0.91120
C          6.98870        2.92000        1.92670
C          6.60370        3.47940       -0.49530
C          7.91370        0.76330        0.13370
C          7.97410       -0.54970       -0.18690
N          6.72630       -1.05820       -0.28890
C          6.46780       -2.48490       -0.66230
C          7.77320       -3.31740       -0.81800
C          5.63650       -3.20600        0.40500
C          5.76170       -2.49850       -2.01050
H          1.89070        2.67960        0.63400
H         -0.89010        4.02030        0.69130
H          0.35410        4.23240       -0.59910
H          0.68000        4.74910        1.09680
H         -0.52470        2.28670        2.53330
H          1.03540        3.10010        2.90520
H          0.98910        1.35870        2.60360
H         -1.44530        1.79200       -1.25030
H         -1.67150        2.00440        0.51370
H         -3.48820        0.27590       -1.09810
H         -3.53990        0.52590        0.68690
H         -3.44950       -1.13710        0.01800
H         -1.39330       -0.58140       -2.20540
H         -1.31790       -1.89860       -1.00140
H          0.78070       -2.80050       -0.57030
H          0.66030       -2.72810       -3.62250
H         -0.71050       -3.20290       -2.55610
H          0.75940       -4.17120       -2.54390
H          2.83540       -2.00080       -2.63540
H          2.83490       -3.47210       -1.56920
H          3.03550       -1.87440       -0.83780
H         -0.08720       -2.80190        1.26840
H          2.38120       -2.58800        2.96070
H          2.41580       -2.82330        1.10820
H          1.67900       -3.97140        2.21400
H          0.38420       -1.71700        4.11260
H         -0.05670       -3.41230        3.69160
H         -1.21490       -2.11880        3.40810
H         -1.43690        0.20210        2.11670
H         -1.66440       -1.40070        1.46990
H          4.19700       -1.79300        2.17530
H          2.98380        0.84310        2.98980
H          3.45860       -0.61090        4.04180
H          4.46230        1.91770        1.72790
H          4.14810        2.35190        0.00880
H          4.45200        3.63600        1.22090
H          6.79640        2.19140        2.74080
H          6.68580        3.93450        2.26050
H          8.08570        2.95370        1.75450
H          6.06270        3.21790       -1.43170
H          7.69310        3.45290       -0.71090
H          6.33770        4.52380       -0.22210
H          8.77150        1.40690        0.25900
H          8.89960       -1.08290       -0.33530
H          8.34340       -3.35100        0.13710
H          8.42450       -2.90020       -1.61430
H          7.54320       -4.36820       -1.10610
H          6.12350       -3.14030        1.40500
H          5.51070       -4.28490        0.16260
H          4.62620       -2.79570        0.42820
H          6.42410       -2.08670       -2.79800
H          4.91230       -1.81680       -1.95590
H          5.44110       -3.52620       -2.28900
