49

P          0.95720       -0.08960       -0.01180
C          0.07390       -1.40840       -1.19350
C         -1.47150       -1.55980       -1.21500
C          0.45090       -1.16850       -2.68270
C          0.60760       -2.83230       -0.89990
C          0.67130       -0.73270        1.81270
C          1.39360       -2.05610        2.15650
C          1.21100        0.25790        2.88000
C         -0.82000       -0.89660        2.20250
C          0.24980        1.65130       -0.58400
C         -1.28910        1.70240       -0.44390
C          0.77860        2.78210        0.30170
C          0.58320        2.09240       -2.02330
Pd         3.41720       -0.08960       -0.01180
Br         3.73430        1.86970        1.50090
C          3.73690       -1.51600       -1.49070
C          4.39440       -2.64610       -1.22590
C          5.56720       -0.08960       -0.01180
O          6.78530       -0.08960       -0.01180
H         -2.01060       -0.73140       -1.67680
H         -1.93570       -1.79870       -0.25890
H         -1.75080       -2.40920       -1.87800
H         -0.11000       -0.36380       -3.14690
H          0.16320       -2.03050       -3.32450
H          1.51730       -0.99870       -2.83770
H          0.09590       -3.27580       -0.03610
H          1.70330       -2.86750       -0.78960
H          0.34480       -3.55090       -1.70390
H          2.46500       -1.99040        1.90210
H          0.96210       -2.94900        1.71360
H          1.31690       -2.27800        3.24000
H          2.29450        0.29580        2.86250
H          0.98940       -0.10320        3.90790
H          0.74770        1.24570        2.83400
H         -1.30900       -1.71360        1.64720
H         -1.39280        0.04910        2.12360
H         -0.92890       -1.20860        3.26110
H         -1.65940        1.33790        0.51670
H         -1.80340        1.19340       -1.26210
H         -1.67610        2.74320       -0.55180
H          0.56260        2.64340        1.36370
H          0.29190        3.74450        0.04220
H          1.84880        2.95360        0.11250
H          0.04610        1.56320       -2.80970
H          1.67030        2.04750       -2.20180
H          0.24020        3.13890       -2.18710
H          3.52450       -1.29650       -2.52490
H          4.71590       -2.87130       -0.21570
H          4.63730       -3.33490       -2.02980
