42

C          1.02400       -0.65300       -0.05500
N          1.03670        0.61880       -0.17760
C          2.21920        1.40120       -0.44390
C         -0.27420        1.18380        0.03370
C         -1.18780       -0.04490        0.17310
N         -0.26570       -1.15300        0.23530
C         -0.63190       -2.51330        0.49110
C         -1.98770       -2.86360        0.71010
C         -2.34810       -4.18380        0.98610
C         -1.37780       -5.17940        1.05040
C         -0.03670       -4.86110        0.83650
C          0.33100       -3.53970        0.55970
Pd         2.78020       -1.86970       -0.29550
Br         3.14490       -1.41220        2.13090
C          2.21880       -2.07100       -2.34180
C          1.14400       -1.54430       -2.93270
N          4.49560       -3.05820       -0.53040
C          4.71450       -3.92970       -1.58440
F          3.75960       -4.28100       -2.46320
C          5.85040       -4.73850       -1.64450
C          6.83410       -4.62170       -0.68210
C          6.64060       -3.74410        0.37160
C          5.44790       -3.01640        0.45840
H          3.11570        0.75350       -0.55570
H          2.39290        2.10400        0.39740
H          2.07760        1.98470       -1.37790
H         -0.60030        1.82950       -0.80950
H         -0.24570        1.76610        0.98070
H         -1.82000       -0.18150       -0.73120
H         -1.81820        0.04250        1.08560
H         -2.76320       -2.11570        0.67410
H         -3.38930       -4.43280        1.15620
H         -1.66170       -6.20280        1.27060
H          0.71760       -5.63530        0.89090
H          1.37880       -3.33820        0.41040
H          2.85780       -2.53060       -3.05970
H          0.39190       -0.97400       -2.41960
H          1.02150       -1.67720       -4.00560
H          5.94650       -5.48060       -2.42890
H          7.72720       -5.22960       -0.74130
H          7.40940       -3.63110        1.12440
H          5.37040       -2.34020        1.28310
