62

C          2.32700        0.03400        0.00000
N          1.53930        1.14490        0.02700
C          1.97520        2.54030       -0.07670
C          2.76650        2.77200       -1.38500
C          1.93730        2.50520       -2.66230
C          2.75600        2.77630       -3.92200
C          0.27110        0.67080        0.00140
C          0.28860       -0.69000       -0.02500
C         -0.88610       -1.43930       -0.04490
C         -2.11430       -0.76260       -0.04210
C         -2.14230        0.64280       -0.02990
C         -0.94620        1.38120       -0.01960
N          1.57340       -1.11720       -0.01910
C          2.00390       -2.53210        0.06860
C          1.33500       -3.27900        1.24100
C          0.44130       -4.34210        0.97740
C         -0.23180       -5.00100        2.01610
C          0.00400       -4.62990        3.34230
C          0.90450       -3.60810        3.63100
C          1.56740       -2.92400        2.58810
Pd         4.47690        0.05800        0.00140
Br         4.46050        1.39320        2.22070
C          4.49050       -1.05030       -1.84080
C          3.43170       -1.37150       -2.58840
N          6.57670        0.08150        0.00280
C          7.13420       -1.15900        0.14880
C          8.50710       -1.28610        0.45610
O          9.07820       -2.43050        0.92560
C          8.41690       -3.45350        1.58830
C          9.31170       -0.15180        0.36660
C          8.73340        1.09820        0.15270
C          7.33860        1.20510        0.08830
H          2.59840        2.80510        0.79460
H          1.10410        3.22720       -0.07400
H          3.66450        2.11610       -1.39060
H          3.10770        3.83040       -1.39640
H          1.03970        3.15830       -2.67160
H          1.59930        1.44310       -2.68520
H          3.08850        3.83780       -3.94630
H          2.14250        2.58450       -4.82740
H          3.65110        2.11850       -3.95890
H         -0.89500       -2.51330       -0.07230
H         -3.03700       -1.33070       -0.04670
H         -3.09610        1.15090       -0.02950
H         -0.98540        2.46090       -0.00530
H          3.10790       -2.59820        0.17230
H          1.71830       -3.03490       -0.87770
H          0.23070       -4.64780       -0.03810
H         -0.93730       -5.79250        1.79300
H         -0.52930       -5.14600        4.14050
H          1.07880       -3.34080        4.66500
H          2.25360       -2.13590        2.84330
H          5.46570       -1.36450       -2.19780
H          2.42450       -1.08530       -2.33660
H          3.57580       -1.93760       -3.50290
H          6.47540       -2.01370        0.23620
H          9.16650       -4.15200        2.02260
H          7.75880       -4.01220        0.89770
H          7.82320       -3.05780        2.44730
H         10.37980       -0.22960        0.52970
H          9.36140        1.97730        0.09130
H          6.87710        2.17580       -0.03210
