51

C          1.02400       -0.65300       -0.05500
N          0.02900       -0.66930       -0.86060
C         -0.05780       -1.46230       -2.06560
C         -1.02800        0.20680       -0.41150
C         -0.57790        0.64040        0.99520
N          0.78610        0.17920        1.05770
C          1.72010        0.49820        2.08690
C          1.28120        0.84080        3.37860
C          2.20560        1.15640        4.37960
C          3.57320        1.16430        4.09480
C          4.01930        0.85000        2.80910
C          3.09840        0.50870        1.81330
Pd         2.78020       -1.86970       -0.29550
Br         3.27130       -0.81050       -2.50170
C          2.48530       -2.78050        1.56240
C          1.28640       -2.82010        2.17610
P          4.78960       -3.26190       -0.57060
N          5.65030       -4.39200        0.49920
C          4.79600       -5.39150        1.17060
C          6.98780       -4.84990        0.17800
O          4.05560       -4.53040       -1.44180
C          3.96040       -4.12830       -2.78770
O          6.00160       -2.20270       -1.11300
C          6.15890       -1.24790       -0.07880
H          0.83120       -2.11190       -2.19270
H         -0.16250       -0.79500       -2.94680
H         -0.94760       -2.12370       -2.00640
H         -2.01380       -0.30250       -0.36130
H         -1.07220        1.06960       -1.11320
H         -1.15530        0.12120        1.79010
H         -0.65760        1.74430        1.09870
H          0.22740        0.84350        3.62130
H          1.86050        1.39800        5.37650
H          4.28580        1.41910        4.86890
H          5.07800        0.87450        2.58370
H          3.45360        0.28400        0.81970
H          3.30120       -3.20260        2.06130
H          0.38090       -2.44560        1.71480
H          1.20540       -3.31000        3.14500
H          3.73680       -5.07810        1.23330
H          5.14550       -5.54420        2.21660
H          4.79640       -6.35300        0.62540
H          7.60820       -4.00160       -0.16750
H          6.94260       -5.66730       -0.56350
H          7.45450       -5.22620        1.11900
H          3.93500       -5.02740       -3.43550
H          4.83230       -3.53350       -3.15460
H          3.00970       -3.57970       -2.94330
H          7.12680       -0.72290       -0.20230
H          6.20160       -1.69250        0.94740
H          5.35560       -0.48510       -0.12720
