54

C          2.32700        0.03400        0.00000
N          1.54400        1.15910       -0.03440
C          1.93220        2.57160        0.01370
C          2.72940        3.03580       -1.20290
C          2.97240        4.55230       -1.09110
C          3.79190        5.09540       -2.25320
C          0.26770        0.69810       -0.07050
C          0.26740       -0.67260       -0.00590
C         -0.91940       -1.40060        0.05970
C         -2.13640       -0.70390        0.00180
C         -2.14940        0.69760       -0.10010
C         -0.94460        1.41820       -0.12340
N          1.54760       -1.10430        0.03260
C          1.95350       -2.48840        0.33800
C          1.99130       -3.51460       -0.81210
C          0.67820       -3.93780       -1.49760
C          0.95860       -5.11530       -2.44340
Pd         4.47690        0.05800        0.00140
Br         4.47390        0.17360        2.58880
C          4.47940       -0.03790       -2.14640
C          3.38300       -0.15910       -2.90060
N          6.57670        0.08150        0.00280
C          7.36450        0.45890        1.03340
O          8.64000        0.35910        0.73610
C          8.72100       -0.08900       -0.49160
C          7.44390       -0.27270       -0.96940
H          2.50300        2.76510        0.94750
H          1.02350        3.20970        0.05990
H          2.15540        2.82550       -2.13470
H          3.69610        2.49470       -1.23970
H          3.51140        4.77230       -0.14440
H          1.99620        5.08830       -1.07060
H          4.78370        4.59860       -2.28480
H          3.94450        6.18770       -2.11350
H          3.25970        4.93090       -3.21330
H         -0.92630       -2.47180        0.15820
H         -3.07140       -1.25350        0.04720
H         -3.09710        1.22280       -0.14050
H         -0.98790        2.49500       -0.19140
H          1.30070       -2.87440        1.15620
H          2.97500       -2.45590        0.76960
H          2.39590       -4.43840       -0.34190
H          2.71030       -3.16420       -1.57810
H          0.24690       -3.09130       -2.07340
H         -0.06870       -4.29780       -0.75630
H          1.72880       -4.83900       -3.19400
H          0.03690       -5.43100       -2.97600
H          1.33120       -5.98910       -1.86240
H          5.40450        0.02640       -2.68990
H          2.38870       -0.22810       -2.48850
H          3.48040       -0.19120       -3.98170
H          7.01490        0.80990        1.98950
H          9.64470       -0.28420       -1.02180
H          7.21220       -0.65340       -1.94660
