56

C         -0.09340       -1.32590        0.15240
N          0.73210       -0.55320       -0.63520
C          1.55930       -0.92080       -1.78400
C          0.65620        0.71810       -0.15320
C          1.38730        1.94260       -0.66810
C         -0.22620        0.73140        0.89830
C         -0.63970        1.95390        1.68370
N         -0.68640       -0.53000        1.08740
C         -1.67660       -0.92430        2.08100
Pd        -0.49020       -3.48260       -0.01010
Br         1.35370       -3.75120        1.78890
C         -2.02080       -3.25970       -1.50340
C         -2.43580       -2.06830       -1.93800
P         -0.97520       -5.86290       -0.13620
N         -0.01510       -7.33060        0.12660
C         -0.55000       -8.68840       -0.00940
C          1.15670       -7.15480       -0.75870
N         -2.15060       -6.00520        1.23930
C         -1.67780       -5.60640        2.57120
C         -3.38210       -5.22570        0.94550
N         -1.73150       -6.12480       -1.74760
C         -0.99660       -5.71740       -2.94260
C         -2.70140       -7.21360       -1.97770
H          1.46070       -1.99150       -2.03590
H          2.62580       -0.67830       -1.57190
H          1.24950       -0.30850       -2.66230
H          2.06860        1.72710       -1.51360
H          1.99400        2.38850        0.15180
H          0.65430        2.70890       -1.00160
H         -0.12620        2.87380        1.33100
H         -0.39740        1.82220        2.75680
H         -1.73050        2.12090        1.56480
H         -1.92110       -0.07310        2.75300
H         -1.28680       -1.75220        2.70120
H         -2.61400       -1.21980        1.56650
H         -2.54220       -4.04900       -1.99200
H         -2.01200       -1.13810       -1.59230
H         -3.20650       -2.02660       -2.70660
H         -1.38310       -8.87450        0.69230
H          0.26880       -9.39890        0.25010
H         -0.78480       -8.96130       -1.04820
H          1.48300       -6.08580       -0.82870
H          0.93990       -7.48850       -1.79630
H          2.02830       -7.70850       -0.37110
H         -0.85050       -6.25450        2.90730
H         -2.50310       -5.75470        3.31600
H         -1.41680       -4.52790        2.60720
H         -3.90510       -5.59630        0.04420
H         -3.16630       -4.14380        0.81360
H         -4.13450       -5.31100        1.76690
H         -0.40230       -4.80320       -2.74780
H         -1.73980       -5.45100       -3.73320
H         -0.36050       -6.53010       -3.31470
H         -3.40040       -7.36780       -1.13260
H         -2.20520       -8.15180       -2.25520
H         -3.33050       -6.97570       -2.86440
