45

C          1.02400       -0.65300       -0.05500
N          1.05020        0.62640       -0.07580
C          2.24940        1.41470       -0.21460
C         -0.26860        1.18390        0.10960
C         -1.19310       -0.04260        0.12970
N         -0.27940       -1.16210        0.13450
C         -0.66520       -2.53850        0.26140
C         -2.02770       -2.89120        0.36950
C         -2.41270       -4.22760        0.51440
C         -1.44760       -5.23450        0.55690
C         -0.09660       -4.90520        0.45410
C          0.29380       -3.57070        0.30690
Pd         2.78020       -1.86970       -0.29550
Br         3.15440       -1.83600        2.26710
C          2.46950       -1.89770       -2.42270
C          1.50250       -1.20610       -3.03590
N          4.49560       -3.05820       -0.53040
C          5.08430       -3.62940        0.57610
N          6.24490       -4.32120        0.50480
C          6.92440       -4.46270       -0.64510
O          8.12450       -5.09320       -0.60620
C          9.05290       -5.13420       -1.62460
C          6.37630       -3.92180       -1.80660
C          5.15010       -3.25110       -1.72850
H          3.14700        0.76720       -0.32640
H          2.38070        2.05150        0.68620
H          2.16360        2.06750       -1.10880
H         -0.54240        1.88250       -0.70850
H         -0.28380        1.71190        1.09070
H         -1.80400       -0.10040       -0.79850
H         -1.84270       -0.02260        1.03010
H         -2.80220       -2.13700        0.34590
H         -3.46170       -4.48250        0.59710
H         -1.74690       -6.26850        0.67230
H          0.65270       -5.68560        0.49270
H          1.34390       -3.36310        0.24150
H          3.00820       -2.51430       -3.10800
H          0.81670       -0.55410       -2.52090
H          1.37720       -1.29900       -4.11140
H          4.64770       -3.61560        1.53890
H          9.93180       -5.71740       -1.28200
H          9.39000       -4.10200       -1.86500
H          8.62610       -5.62120       -2.52310
H          6.89400       -3.97890       -2.75540
H          4.86810       -2.79870       -2.64340
