81

P          0.92880        0.05660        0.04160
C         -0.03800        0.44990       -1.66250
C         -1.59050        0.50270       -1.74510
C          0.37770        1.83240       -2.26480
C          0.33410       -0.59690       -2.73900
C          0.53320       -1.87860        0.35330
C          1.22680       -2.83480       -0.64490
C          1.00010       -2.42070        1.73230
C         -0.97440       -2.23470        0.36690
C          0.16820        1.38180        1.26900
C         -1.38040        1.25240        1.39330
C          0.71870        1.16600        2.68580
C          0.42680        2.88230        0.98090
Pd         3.38880        0.05660        0.04160
Br         3.38880       -0.66790        2.52820
C          3.38880        0.65800       -2.02260
C          3.40180        0.18780       -3.28090
P          5.84880        0.05660        0.04160
C          6.68740        1.52880       -0.65260
C          7.55010        2.31350        0.13310
C          8.02880        3.54100       -0.35110
C          7.65250        3.99770       -1.61780
C          6.81770        3.21990       -2.41390
C          6.34520        1.99920       -1.93840
C          6.46940       -0.31850        1.69240
C          7.24750       -1.47450        1.86090
C          7.69970       -1.84570        3.12920
C          7.36970       -1.06930        4.24170
C          6.61070        0.09460        4.08110
C          6.17450        0.48120        2.80710
C          6.31870       -0.90580       -1.43450
C          7.68540       -1.00080       -1.77170
C          8.07240       -1.74660       -2.88440
C          7.11320       -2.39270       -3.65300
C          5.77380       -2.32240       -3.26060
O          4.92620       -2.90500       -3.91100
N          5.41340       -1.61130       -2.14990
H         -2.04250        1.38690       -1.30100
H         -2.12130       -0.39410       -1.42810
H         -1.89370        0.62830       -2.81180
H         -0.02430        2.68790       -1.73420
H         -0.04160        1.97390       -3.28560
H          1.43600        2.01420       -2.38410
H         -0.30350       -1.49280       -2.66530
H          1.37300       -0.91170       -2.67830
H          0.14160       -0.23330       -3.77470
H          2.32050       -2.66400       -0.65810
H          0.84550       -2.82490       -1.66150
H          1.04810       -3.89370       -0.34460
H          2.07790       -2.60650        1.75730
H          0.62510       -3.45320        1.92120
H          0.62380       -1.84820        2.59000
H         -1.46450       -2.09350       -0.59420
H         -1.53080       -1.77210        1.20100
H         -1.12890       -3.32170        0.55450
H         -1.74060        0.22550        1.41390
H         -1.92360        1.80120        0.62100
H         -1.77620        1.73790        2.30850
H          0.54000        0.15280        3.05640
H          0.20850        1.83330        3.41860
H          1.78660        1.43820        2.72680
H         -0.14700        3.28290        0.14130
H          1.50180        3.11850        0.88170
H          0.01030        3.49860        1.81360
H          3.45770        1.74060       -1.99670
H          3.37980       -0.84710       -3.57400
H          3.43740        0.92320       -4.08670
H          7.82210        2.01080        1.13330
H          8.66960        4.15650        0.26550
H          7.99820        4.95680       -1.98200
H          6.51290        3.56940       -3.39340
H          5.68990        1.44460       -2.57930
H          7.49660       -2.09840        1.01150
H          8.29320       -2.74330        3.25010
H          7.70050       -1.37210        5.22710
H          6.34830        0.68790        4.94690
H          5.57190        1.37350        2.69600
H          8.44140       -0.50650       -1.17710
H          9.12040       -1.82330       -3.14550
H          7.41290       -2.96260       -4.52480
H          4.42410       -1.61600       -1.83000
