62

C          2.32700        0.03400        0.00000
N          1.53510        1.14210        0.00450
C          1.96030        2.54780        0.05960
C          2.85530        2.96380       -1.10930
C          2.17130        2.84380       -2.47690
C          3.10710        3.33500       -3.58240
C          0.26990        0.66330        0.02770
C          0.30800       -0.70840        0.03370
C         -0.85900       -1.47870        0.02090
C         -2.09170       -0.80460        0.02450
C         -2.13550        0.60530        0.03210
C         -0.94630        1.35690        0.03410
N          1.59230       -1.11680        0.01100
C          2.05760       -2.49960       -0.18770
C          2.00370       -3.40990        1.01720
C          1.08770       -4.47960        1.08720
C          1.12860       -5.37940        2.16010
C          2.09160       -5.23160        3.16080
C          3.00360       -4.17540        3.09930
C          2.95590       -3.26650        2.03700
Pd         4.47690        0.05800        0.00140
Br         4.47890        0.02870       -2.58840
C          4.47520        0.08240        2.15130
C          3.37540        0.21410        2.90000
N          6.57670        0.08150        0.00280
C          7.20500        0.57930       -1.11000
C          8.58620        0.56130       -1.25730
C          9.38520        0.02290       -0.24890
O         10.73620       -0.06450       -0.36440
C         11.45760        0.26250       -1.49730
C          8.76040       -0.45630        0.90240
C          7.36130       -0.41870        1.01410
H          2.52680        2.70610        1.00180
H          1.08210        3.22100        0.08600
H          3.78370        2.35860       -1.08950
H          3.13970        4.02760       -0.94920
H          1.24500        3.45890       -2.49460
H          1.89740        1.78510       -2.67220
H          3.36660        4.40320       -3.42160
H          2.61530        3.23290       -4.57190
H          4.04590        2.74340       -3.59210
H         -0.82860       -2.55770        0.01300
H         -3.01410       -1.37140        0.01890
H         -3.09370        1.11020        0.03140
H         -0.99700        2.43640        0.02950
H          3.10130       -2.50100       -0.56770
H          1.44420       -2.93170       -1.01120
H          0.35060       -4.63280        0.30930
H          0.42750       -6.20400        2.20730
H          2.13920       -5.94150        3.97760
H          3.76120       -4.07190        3.86480
H          3.68980       -2.47870        1.98590
H          5.37230       -0.00260        2.73040
H          2.38460        0.30900        2.48640
H          3.46540        0.21380        3.98280
H          6.66670        1.02620       -1.91530
H          9.01270        0.96110       -2.16810
H         12.53330        0.06000       -1.32250
H         11.33190        1.33950       -1.74040
H         11.12030       -0.35700       -2.35770
H          9.35380       -0.89110        1.69790
H          6.95660       -0.87640        1.89060
