49

C         -0.12030       -1.36830       -0.15990
N          0.17470       -0.50150        0.85760
C          0.27350       -0.70520        2.29760
C          0.22030        0.72890        0.28610
Cl         0.51360        2.24470        1.14650
C         -0.03630        0.60730       -1.04620
Cl        -0.07760        1.93710       -2.20380
N         -0.27540       -0.68610       -1.32300
C         -0.51160       -1.25350       -2.64670
Pd        -0.49020       -3.48260       -0.01010
Br        -2.85720       -3.16430       -1.01200
C          1.47470       -3.74690        0.82170
C          2.37700       -2.79740        1.08270
P         -0.98410       -5.84100       -0.13070
C         -2.33340       -6.77720       -0.89250
C          0.38270       -6.56920       -1.09580
C          1.31980       -7.46550       -0.52720
C          2.28050       -8.09610       -1.34820
C          2.30350       -7.84130       -2.72060
C          1.38980       -6.95230       -3.28290
C          0.44020       -6.31600       -2.47700
C         -1.03770       -6.46460        1.58900
C         -0.97560       -5.59850        2.70460
C         -1.16600       -6.09720        4.01890
C         -1.42700       -7.45120        4.22020
C         -1.47230       -8.32420        3.13880
C         -1.27360       -7.83830        1.83890
H          0.11850       -1.76730        2.57370
H         -0.51990       -0.10330        2.80230
H          1.25110       -0.34010        2.67310
H         -0.47060       -0.46590       -3.42870
H         -1.49470       -1.72820       -2.71450
H          0.28460       -1.99390       -2.86360
H          1.76220       -4.77200        1.03140
H          2.21770       -1.75690        0.87780
H          3.33990       -3.06620        1.50090
H         -2.39890       -6.46340       -1.95480
H         -3.26770       -6.43940       -0.39410
H         -2.23120       -7.87110       -0.83080
H          1.30520       -7.70140        0.52110
H          2.99200       -8.79870       -0.92260
H          3.03310       -8.33810       -3.35720
H          1.40280       -6.76360       -4.34940
H         -0.28000       -5.65140       -2.93550
H         -0.81350       -4.53840        2.56260
H         -1.13540       -5.42430        4.85800
H         -1.59700       -7.82660        5.21950
H         -1.68580       -9.37280        3.29580
H         -1.33930       -8.54570        1.02780
