89

C          1.04260       -1.86930       -0.13130
N          1.00720       -0.67070       -0.82810
C          0.02240       -0.08160       -1.72960
C          2.19680       -0.05460       -0.62000
Cl         2.70470        1.50710       -1.27440
C          2.95250       -0.83710        0.19520
Cl         4.54740       -0.39750        0.81940
N          2.26000       -1.95680        0.49430
C          2.72210       -2.94100        1.46530
Pd        -0.49020       -3.48260       -0.01010
Br         1.08650       -5.25000       -1.05830
C         -1.79900       -2.01560        0.86010
C         -1.59100       -0.70780        1.03960
C         -1.44270       -5.39830        0.51190
N         -2.54990       -5.92620       -0.04810
C         -3.69720       -5.63840       -1.01940
C         -3.83280       -4.52280       -1.93230
C         -2.94500       -3.32980       -1.99800
C         -2.37700       -3.09650       -3.41570
C         -3.80490       -2.13030       -1.53650
C         -4.92860       -4.45350       -2.85260
C         -5.90330       -5.39660       -2.94230
C         -5.87770       -6.42400       -2.07610
C         -4.86450       -6.55910       -1.10820
C         -5.23380       -7.66630       -0.15610
C         -4.99170       -9.10390       -0.73110
C         -5.17430       -7.14470        1.30630
C         -2.36210       -7.39320        0.03370
C         -1.03060       -7.65800        0.59760
N         -0.63740       -6.45460        1.24350
C          0.60000       -6.47290        2.15850
C          1.49470       -7.65480        2.39290
C          0.88010       -9.08500        2.32800
C          1.28340      -10.57280        2.23230
C         -0.08450       -9.13690        3.56760
C          2.77570       -7.52600        2.94990
C          3.18040       -6.31310        3.47490
C          2.25780       -5.34130        3.66350
C          0.94450       -5.46610        3.12110
C         -0.16690       -4.79180        3.92780
C         -0.08310       -5.35130        5.40650
C         -0.09950       -3.27340        4.00480
H         -0.89000       -0.68280       -1.78350
H          0.47580       -0.01170       -2.74840
H         -0.22980        0.95200       -1.39570
H          3.76530       -2.73310        1.79850
H          2.68190       -3.96210        1.06690
H          2.11380       -2.83390        2.38510
H         -2.73700       -2.41380        1.23130
H         -0.68670       -0.20140        0.77450
H         -2.35280       -0.10290        1.51770
H         -2.11640       -3.46740       -1.30750
H         -3.16640       -2.96760       -4.18630
H         -1.74730       -3.95410       -3.72890
H         -1.77700       -2.16760       -3.44060
H         -4.64510       -1.91420       -2.23080
H         -3.20440       -1.20960       -1.45140
H         -4.26760       -2.36150       -0.54990
H         -5.06840       -3.63810       -3.54220
H         -6.72020       -5.31530       -3.65030
H         -6.70750       -7.12280       -2.14640
H         -6.34480       -7.73760       -0.16450
H         -4.14190       -9.66680       -0.30720
H         -4.81780       -9.03890       -1.83410
H         -5.91390       -9.73810       -0.67400
H         -4.91790       -7.94650        2.02960
H         -4.32880       -6.50610        1.58360
H         -5.89180       -6.29020        1.39670
H         -2.39480       -7.91030       -0.96480
H         -3.03850       -7.89250        0.71120
H         -0.28520       -7.89780       -0.21490
H         -1.24390       -8.53500        1.24130
H          0.61870       -9.11350        1.29910
H          1.55570      -11.09550        3.17100
H          1.98130      -10.80220        1.40390
H          0.31880      -11.09240        1.93280
H          0.47620       -8.87680        4.51320
H         -0.94350       -8.44720        3.50020
H         -0.94190       -8.44520        3.50040
H          3.42600       -8.37850        3.07400
H          4.15820       -6.21220        3.93780
H          2.48540       -4.53240        4.33140
H         -1.17860       -5.08550        3.56140
H          0.90100       -5.14770        5.89460
H         -0.21350       -6.45740        5.44200
H         -0.84130       -4.91300        6.09000
H          0.86010       -2.94150        4.45500
H         -0.92110       -2.90090        4.65790
H         -0.22160       -2.86260        2.99030
