43

C          0.90100       -0.64300       -0.00200
N         -0.35680       -1.11950        0.07100
C         -0.78000       -2.51100        0.10810
C         -1.16790       -0.04830        0.04520
C         -0.38520        1.08210       -0.04650
N          0.91690        0.71050       -0.08670
C          2.07250        1.58820       -0.15500
C          1.91770        2.99170       -0.21180
C          3.03300        3.83430       -0.26830
C          4.31950        3.29750       -0.26730
C          4.49430        1.91630       -0.20570
C          3.38410        1.07000       -0.14900
Pd         2.65840       -1.88140       -0.01350
Br         2.44160       -1.89160       -2.48810
C          2.67560       -1.75680        2.11390
C          1.76000       -1.14440        2.86470
N          4.37500       -3.09110       -0.02470
C          4.66480       -3.89750       -1.09020
N          5.74010       -4.73380       -1.05560
C          6.60650       -4.72970       -0.00550
O          7.67170       -5.56170        0.04400
C          7.84920       -6.63510       -0.79660
C          6.39390       -3.85500        1.04180
C          5.25510       -3.06580        1.02440
H          0.09970       -3.18800        0.09520
H         -1.40080       -2.72330       -0.79060
H         -1.38610       -2.70000        1.01730
H         -2.24910       -0.08280        0.08120
H         -0.76320        2.09360       -0.07750
H          0.94300        3.45410       -0.21160
H          2.89820        4.90750       -0.31260
H          5.18140        3.95070       -0.31200
H          5.49280        1.49820       -0.20120
H          3.57240        0.01670       -0.09890
H          3.40670       -2.28110        2.70610
H          0.91720       -0.60410        2.46840
H          1.85100       -1.19780        3.95000
H          3.98940       -3.97560       -1.92360
H          8.80810       -7.13330       -0.54610
H          7.87490       -6.29950       -1.85350
H          7.02340       -7.36480       -0.64840
H          7.09260       -3.78860        1.86780
H          5.16950       -2.36980        1.82890
