31

C         -0.32800       -1.08200        0.00300
N          0.73540       -0.62450        0.69170
H          1.33270       -1.16670        1.35370
C          0.79660        0.69140        0.42890
Cl         1.95590        1.79340        1.14700
C         -0.19510        0.99880       -0.47780
Cl        -0.44880        2.54720       -1.26210
N         -0.93410       -0.10520       -0.69790
Pd        -0.94440       -3.14170        0.01670
Br        -3.03760       -2.50610        1.40320
C          0.79320       -3.66930       -1.13430
C          1.85860       -2.89210       -1.34120
N         -1.54650       -5.15350        0.03000
C         -1.09600       -6.01530        0.98530
O         -0.38110       -5.50640        2.01780
C         -0.13260       -6.17380        3.20080
C         -1.47310       -7.37120        0.90670
C         -2.28300       -7.80300       -0.14230
C         -2.73050       -6.89240       -1.09450
C         -2.37350       -5.55170       -0.97340
H         -1.73210       -0.21060       -1.36290
H          0.79040       -4.65610       -1.58640
H          1.94700       -1.89970       -0.94020
H          2.68290       -3.25520       -1.94410
H          0.34040       -5.48470        3.92600
H          0.52340       -7.04820        3.03160
H         -1.09650       -6.51990        3.65490
H         -1.17210       -8.08240        1.66490
H         -2.56820       -8.84780       -0.21120
H         -3.33740       -7.22650       -1.92890
H         -2.68310       -4.84300       -1.72720
