47

C          1.02400       -0.65300       -0.05500
N          1.00830        0.63950       -0.19570
C          2.11470        1.57470       -0.41450
C          3.04260        1.65760        0.80010
C          2.89040        1.31070       -1.70000
C         -0.32120        1.16580        0.00780
C         -1.21660       -0.05090        0.03080
N         -0.29450       -1.13560        0.24850
C         -0.79680       -2.43900        0.68270
C         -0.44620       -3.56350       -0.27930
C         -0.38210       -2.75610        2.12350
Pd         2.78020       -1.86970       -0.29550
Br         3.35290       -1.53800        2.20850
C          2.30480       -2.14510       -2.37410
C          1.35730       -1.45330       -3.01470
N          4.49560       -3.05820       -0.53040
C          5.09510       -3.63090        0.56760
C          6.26860       -4.38220        0.46730
C          6.85130       -4.58040       -0.77330
C          6.25840       -4.01810       -1.89410
C          5.09260       -3.25480       -1.75530
H          1.67830        2.59620       -0.50850
H          3.64840        0.74310        0.88790
H          2.44300        1.81660        1.72420
H          3.73640        2.51670        0.68920
H          3.41960        0.33890       -1.64860
H          3.64310        2.11720       -1.84930
H          2.20010        1.32320       -2.56850
H         -0.64770        1.87910       -0.78050
H         -0.32390        1.67090        1.00190
H         -1.67010       -0.22540       -0.97700
H         -2.00210        0.04900        0.80170
H         -1.91030       -2.38030        0.70920
H          0.64770       -3.73420       -0.30140
H         -0.81710       -3.31450       -1.29490
H         -0.95520       -4.49510        0.05540
H          0.70920       -2.91380        2.21080
H         -0.90820       -3.67450        2.46930
H         -0.69130       -1.92700        2.79820
H          2.74390       -2.93980       -2.95510
H          0.77920       -0.67430       -2.54440
H          1.12400       -1.68880       -4.04820
H          4.69680       -3.54380        1.55280
H          6.72150       -4.80640        1.35460
H          7.76150       -5.15970       -0.86330
H          6.70970       -4.15710       -2.86840
H          4.73440       -2.80570       -2.65590
