63

C          1.02400       -0.65300       -0.05500
N          1.04970        0.65730       -0.34580
C          2.15170        1.66090       -0.70700
C          1.87600        2.91730       -1.39590
C          0.63290        3.26730       -2.16240
C          2.85210        3.95920       -1.48070
C          4.12660        3.82440       -0.94680
C          5.17550        4.90060       -0.94850
C          4.46640        2.63280       -0.41270
C          3.55450        1.58030       -0.31180
C          4.24120        0.46870        0.25060
C         -0.25190        1.16990        0.04140
C         -1.16130       -0.03170        0.20250
N         -0.28290       -1.14490        0.44330
C         -0.75990       -2.45800        0.99150
C         -0.01950       -3.67600        0.82850
C          1.12110       -3.78640       -0.06400
C         -0.40050       -4.90180        1.38280
C         -1.55300       -5.03960        2.11320
C         -1.92150       -6.39430        2.67670
C         -2.36550       -3.92310        2.26720
C         -2.02160       -2.65010        1.72730
C         -3.07910       -1.59900        1.99050
Pd         2.78020       -1.86970       -0.29550
Br         3.39050       -1.48040        2.19130
C          2.27360       -2.19290       -2.35980
C          1.20430       -1.68770       -2.98490
C          4.53640       -3.08650       -0.53600
N          5.42680       -3.32230        0.44730
C          6.34100       -4.12530       -0.12530
C          5.97770       -4.34270       -1.43400
O          4.86150       -3.69360       -1.65500
H         -0.04400        2.42620       -2.36370
H          0.94590        3.55110       -3.19170
H          0.12890        4.15080       -1.71140
H          2.61700        4.89290       -1.97070
H          4.83030        5.82740       -1.44030
H          6.09810        4.53100       -1.45100
H          5.44680        5.13830        0.10750
H          5.48990        2.51850       -0.04100
H          4.58910        0.69940        1.28490
H          5.08220        0.10900       -0.37980
H          3.48450       -0.20010        0.17790
H         -0.77400        1.88790       -0.58780
H         -0.10400        1.66230        1.03010
H         -1.70390       -0.25230       -0.74630
H         -1.85560        0.25530        0.99550
H          0.82340       -3.13380       -0.86930
H          1.13260       -4.76230       -0.59980
H          2.06410       -3.67230        0.49330
H          0.20870       -5.78680        1.21360
H         -1.14110       -7.15570        2.44800
H         -2.87230       -6.75270        2.23140
H         -2.02370       -6.34910        3.78040
H         -3.28940       -4.06760        2.82220
H         -3.96150       -2.00040        2.54360
H         -3.49560       -1.24110        1.02680
H         -2.69090       -0.78250        2.62650
H          2.94610       -2.80240       -2.95090
H          0.47870       -1.06250       -2.48680
H          1.04590       -1.90760       -4.03600
H          7.21170       -4.52490        0.37660
H          6.50420       -4.94070       -2.16580
