41

C         -0.22090       -1.21860       -0.00920
N         -1.13370       -0.15120        0.05850
C         -2.61260       -0.16230        0.05180
C         -0.38120        1.01020        0.02190
C         -0.79880        2.49440        0.01710
C          0.94030        0.65360       -0.02920
C          2.12880        1.59240       -0.02880
N          1.03230       -0.69340       -0.06470
C          2.28410       -1.43230       -0.03880
Pd        -0.48800       -3.48150       -0.00060
Br        -0.64130       -3.46340       -2.61210
C         -0.36100       -3.48300        2.13600
C         -0.18560       -2.37410        2.86070
N         -0.78460       -5.55350        0.00910
C         -0.76330       -6.13160        1.36950
C         -2.10480       -5.87370       -0.57450
C          0.21000       -6.20510       -0.86180
H         -3.01640       -1.19200        0.02600
H         -3.00350        0.37130       -0.85110
H         -3.03210        0.37310        0.93390
H         -1.88430        2.70570        0.02390
H         -0.37180        3.01800       -0.87640
H         -0.34730        3.03410        0.88530
H          1.85450        2.66740       -0.01090
H          2.74260        1.41530       -0.93570
H          2.74540        1.39910        0.87520
H          3.15590       -0.74580       -0.01340
H          2.38630       -2.05510       -0.93560
H          2.32590       -2.03400        0.89210
H         -0.42300       -4.37150        2.73900
H         -0.07260       -1.39930        2.43400
H         -0.12620       -2.41760        3.94100
H         -1.55220       -5.67060        2.00560
H          0.24450       -5.98960        1.82100
H         -0.92840       -7.22630        1.36770
H         -2.90110       -5.36980        0.01520
H         -2.29900       -6.97000       -0.54010
H         -2.23890       -5.57480       -1.61750
H          1.22500       -5.98130       -0.45720
H          0.20090       -5.86440       -1.90470
H          0.09990       -7.31210       -0.83700
