38

N         -1.46130       -0.49830        0.21500
C         -1.00810       -0.19560        1.47320
C          0.35110       -0.19540        1.78790
F          0.76140        0.13960        3.04210
C          1.28900       -0.52430        0.82240
C          0.83900       -0.90580       -0.44380
C         -0.53920       -0.91590       -0.71770
Pd        -3.47560       -0.20170       -0.28210
Br        -3.11120       -2.07290       -2.03540
C         -3.77820        1.35150        1.17340
C         -3.04040        2.01470        2.08530
P         -5.76380        0.19850       -0.70860
N         -7.16670        1.22600       -0.40540
C         -7.14740        2.36350       -1.33820
C         -8.48370        0.66540       -0.16770
O         -6.36030       -0.71690       -2.01810
C         -5.69750       -0.31480       -3.18300
O         -5.94910       -0.33460        0.90050
C         -5.84570       -1.75760        0.83190
H         -1.69620       -0.01410        2.25030
H          2.34750       -0.49670        1.04500
H          1.56100       -1.15640       -1.20660
H         -0.79370       -1.12530       -1.73960
H         -4.76270        1.80080        1.11890
H         -1.99080        1.93140        2.28910
H         -3.51130        2.81410        2.65040
H         -6.10390        2.66500       -1.60260
H         -7.60620        3.25730       -0.86710
H         -7.67810        2.11500       -2.28050
H         -8.43340       -0.14630        0.58220
H         -8.94060        0.32550       -1.11530
H         -9.11310        1.47260        0.27730
H         -5.81790       -1.12720       -3.93010
H         -4.60890       -0.17860       -3.04140
H         -6.12520        0.62400       -3.57880
H         -5.95570       -2.21130        1.83780
H         -4.84790       -2.09280        0.46000
H         -6.64540       -2.22040        0.20140
