69

P          0.93270       -0.07270        0.01360
O         -0.42600       -1.11370        0.09200
C         -0.19500       -2.16930       -0.84800
O          0.54820        0.91900        1.35270
C          0.58450        0.19090        2.55090
O          0.55760        0.45790       -1.58190
C         -0.82220        0.83140       -1.63570
Pd         3.39270       -0.07270        0.01360
Br         3.39270        2.49090       -0.35550
C          3.39270       -2.20080        0.31990
C          2.83430       -3.34040       -0.10230
P          5.85270       -0.07270        0.01360
C          7.10190        1.30560       -0.48270
C          6.47720        2.51780       -0.55860
C          6.86590        3.63570       -1.23130
C          8.10820        3.65480       -1.83950
O          8.46810        4.74880       -2.59230
C          7.58270        5.75000       -3.03990
C          8.93370        2.52980       -1.64870
C          8.43740        1.34220       -0.99700
C          6.31410       -0.43550        1.71450
C          7.11510       -1.55260        2.04090
C          7.48710       -1.80770        3.35380
C          7.07640       -0.94490        4.39190
O          7.42160       -1.16300        5.69180
C          8.15380       -2.23650        6.15540
C          6.30280        0.18240        4.07690
C          5.92460        0.43820        2.74940
C          6.22240       -1.42470       -1.16810
C          5.20000       -1.99500       -1.95220
C          5.46120       -3.06570       -2.81700
C          6.75760       -3.55890       -2.97450
O          7.04830       -4.60710       -3.78870
C          6.12710       -5.41520       -4.42860
C          7.79330       -2.94310       -2.26280
C          7.53150       -1.91000       -1.35710
H         -0.20390       -3.16230       -0.35170
H          0.73840       -2.07970       -1.45290
H         -0.96100       -2.16470       -1.64460
H         -0.10800        0.69230        3.26180
H          1.60520        0.22860        2.98000
H          0.21070       -0.85140        2.46340
H         -1.04410        1.33380       -2.59410
H         -1.12240        1.50650       -0.80390
H         -1.51600       -0.03840       -1.64690
H          4.12140       -2.38440        1.10430
H          2.10180       -3.47270       -0.86140
H          3.16760       -4.25920        0.38540
H          5.63360        2.57600       -0.04800
H          6.17020        4.46880       -1.27700
H          8.11140        6.51890       -3.63640
H          7.09220        6.27640       -2.18940
H          6.78620        5.30770       -3.69060
H          9.92890        2.55370       -2.07220
H          9.08280        0.48720       -0.96930
H          7.42630       -2.23700        1.26630
H          8.08980       -2.67570        3.55440
H          8.24720       -2.16670        7.26110
H          9.16900       -2.23310        5.71120
H          7.63170       -3.18720        5.91440
H          5.98790        0.85710        4.86520
H          5.33170        1.31600        2.53060
H          4.18130       -1.62940       -1.89670
H          4.62010       -3.49960       -3.35460
H          6.65290       -6.18130       -5.01860
H          5.47620       -4.81740       -5.10150
H          5.49770       -5.92640       -3.65870
H          8.81300       -3.28680       -2.39350
H          8.35100       -1.50260       -0.80080
