66

P          1.08340       -0.03800       -0.04000
O         -0.25640        0.66340        0.76520
C          0.03990        0.62910        2.16590
O          0.72200        0.52730       -1.61300
C          0.80170        1.92820       -1.67790
O          0.70830       -1.63880        0.45610
C         -0.67590       -1.88250        0.19800
Pd         3.54340       -0.03800       -0.04000
Br         3.48580       -1.63930       -1.93600
C          3.45230        1.29120        1.58860
C          3.73120        0.98770        2.85120
P          6.00340       -0.03800       -0.04000
C          6.81240       -0.92210       -1.42540
C          6.60640       -0.48800       -2.78460
C          5.86130        0.74610       -3.19870
C          7.05770       -1.28200       -3.84900
C          7.69130       -2.49420       -3.60920
C          7.91480       -2.91410       -2.29830
C          7.49270       -2.13370       -1.21300
C          6.69860        1.67430       -0.15580
C          6.00390        2.90660       -0.39610
C          4.53850        3.05520       -0.65980
C          6.72500        4.11790       -0.45030
C          8.10560        4.13680       -0.32200
C          8.78820        2.94050       -0.14430
C          8.10430        1.73510       -0.05860
C          6.32700       -0.81110        1.59020
C          5.97750       -2.15550        1.93720
C          5.29960       -3.13410        1.01650
C          6.29840       -2.64400        3.21820
C          6.95440       -1.84240        4.14810
C          7.29950       -0.53750        3.81700
C          6.98890       -0.02860        2.55660
H         -0.36850        1.53120        2.66420
H          1.12250        0.65470        2.41500
H         -0.37230       -0.27470        2.63770
H          0.07730        2.26660       -2.45020
H          1.81680        2.23050       -2.00160
H          0.50250        2.45290       -0.74520
H         -0.89580       -2.96050        0.28710
H         -0.99090       -1.55450       -0.81980
H         -1.34610       -1.40530        0.95150
H          3.11410        2.29920        1.40220
H          4.04800        0.00030        3.14650
H          3.62810        1.76670        3.60430
H          5.37530        1.26910       -2.36590
H          5.03050        0.49080       -3.90110
H          6.54490        1.44980       -3.70560
H          6.88040       -0.97950       -4.87470
H          7.99320       -3.11500       -4.44540
H          8.38870       -3.87140       -2.12820
H          7.64930       -2.51790       -0.22010
H          4.01920        2.08890       -0.71550
H          4.38950        3.54290       -1.64720
H          4.09370        3.72760        0.10480
H          6.21110        5.05910       -0.62030
H          8.64610        5.07750       -0.38630
H          9.87120        2.95670       -0.07480
H          8.67960        0.82550        0.08050
H          5.10400       -2.72080        0.01800
H          4.33680       -3.46840        1.45740
H          5.95190       -4.02860        0.89260
H          6.04560       -3.66130        3.49590
H          7.20020       -2.23580        5.12680
H          7.81280        0.08370        4.54000
H          7.27580        0.98940        2.34860
