26

N         -1.46000       -0.08150       -0.02350
C         -0.74220        0.85690       -0.71210
C          0.66100        0.86180       -0.65420
C          1.31500       -0.06190        0.16160
F          2.67070       -0.07590        0.23270
C          0.56680       -0.98220        0.89460
C         -0.82690       -0.99680        0.76350
Pd        -3.47560       -0.20170       -0.28210
Br        -3.76040        1.49400        1.65480
C         -3.23930       -1.60940       -1.88990
C         -2.06010       -2.03840       -2.34570
N         -5.52500       -0.26610       -0.52850
C         -6.29120       -1.13670       -1.23220
O         -7.56860       -0.84960       -1.14140
C         -7.67980        0.20990       -0.38360
C         -6.41890        0.58450        0.01480
H         -1.24470        1.55400       -1.36990
H          1.24100        1.56140       -1.24660
H          1.06370       -1.69180        1.54290
H         -1.41050       -1.71720        1.31650
H         -4.07110       -2.02680       -2.41470
H         -1.11670       -1.71270       -1.93600
H         -2.04120       -2.74910       -3.16960
H         -5.96190       -1.99380       -1.77810
H         -8.61330        0.68910       -0.12610
H         -6.20590        1.42510        0.65110
