35

O         -0.32800       -1.08200        0.00300
C          0.82570       -0.63780       -0.43920
C          0.83150        0.73910       -0.32970
C         -0.36620        1.08540        0.26550
C         -1.08110       -0.08600        0.40110
Pd        -0.91570       -3.04590        0.01600
Br        -2.73280       -2.37660       -1.54750
C          0.64640       -3.51230        1.34820
C          1.35040       -2.57960        2.00750
N         -1.51780       -5.05770        0.02930
C         -0.81750       -6.16100        0.36890
N         -1.54160       -7.28700        0.16540
C         -1.08550       -8.65490        0.11670
C          0.26060       -8.94640       -0.20960
C          0.68030      -10.26960       -0.39530
C         -0.22610      -11.31960       -0.24180
C         -1.55600      -11.04840        0.08340
C         -1.98680       -9.72870        0.24800
C         -2.78360       -6.86310       -0.15340
C         -2.73640       -5.50060       -0.33070
H          1.58870       -1.25130       -0.90120
H          1.61490        1.41430       -0.64610
H         -0.68350        2.07680        0.56130
H         -2.05340       -0.19780        0.86530
H          0.80380       -4.51640        1.69620
H          1.20600       -1.52540        1.86370
H          2.04110       -2.87230        2.79260
H          0.23770       -6.16870        0.59050
H          0.97980       -8.15510       -0.37840
H          1.70490      -10.48340       -0.67660
H          0.09770      -12.34260       -0.38780
H         -2.26070      -11.86210        0.19110
H         -3.02780       -9.54990        0.47320
H         -3.64380       -7.49500       -0.32010
H         -3.57410       -4.87070       -0.59270
