26

O          1.05630       -0.00650       -0.08240
C          0.49900        1.13730       -0.66770
C          0.89000        1.24790       -2.13690
C         -1.02420        1.02110       -0.52670
Pd         3.10630       -0.00650       -0.08240
Br         3.10630        2.17660        1.31130
C          3.10630       -1.81860       -1.23930
C          3.07810       -1.84570       -2.56910
N          5.20630       -0.00650       -0.08240
C          6.04350        0.89820        0.47090
O          7.30030        0.56930        0.28480
C          7.31740       -0.55720       -0.38710
C          6.02010       -0.93140       -0.62830
H          0.81280        2.04390       -0.12040
H          0.55170        0.35080       -2.69650
H          1.99080        1.34480       -2.22750
H          0.41580        2.14940       -2.58110
H         -1.39780        0.11900       -1.05810
H         -1.53040        1.92120       -0.93990
H         -1.29740        0.92910        0.54790
H          3.13170       -2.75460       -0.69080
H          3.05420       -0.93200       -3.14800
H          3.08120       -2.80620       -3.07840
H          5.74070        1.78770        0.99390
H          8.21390       -1.08650       -0.68220
H          5.70460       -1.82200       -1.15550
