29

N         -0.65900       -1.22800       -0.05100
C         -1.37970       -0.07620        0.09800
O         -2.73430       -0.13610        0.01280
C         -3.54550        0.94490       -0.29530
C         -0.69360        1.15800        0.16280
C          0.70020        1.18080        0.10160
C          1.40130       -0.00650       -0.07690
C          0.69450       -1.20110       -0.19630
Pd        -1.57560       -3.10440       -0.27260
Br        -1.14550       -3.01310       -2.82500
C         -1.93270       -3.18010        1.84620
C         -1.40670       -2.33870        2.73690
C         -2.51410       -5.02540       -0.49940
N         -2.47100       -5.74190       -1.63980
C         -3.17320       -6.85220       -1.35660
C         -3.61090       -6.77460       -0.05480
O         -3.19310       -5.63680        0.44510
H         -4.58830        0.60020       -0.44900
H         -3.21140        1.42180       -1.24860
H         -3.52350        1.69670        0.51840
H         -1.21970        2.10010        0.23240
H          1.23390        2.12020        0.16290
H          2.48280       -0.00280       -0.12940
H          1.23190       -2.13080       -0.33130
H         -2.60840       -3.94330        2.21460
H         -0.74210       -1.53630        2.45150
H         -1.66670       -2.44680        3.78620
H         -3.35200       -7.66140       -2.05190
H         -4.19730       -7.51120        0.47780
