43

N         -1.45880       -0.04410       -0.00540
C         -0.67000       -1.15580       -0.07780
C          0.68080       -1.09940        0.28340
C          1.24150        0.10840        0.72850
O          2.53670        0.18890        1.14800
C          3.39420       -0.89470        1.25750
C          0.42530        1.24910        0.75710
C         -0.92870        1.14930        0.39380
Pd        -3.47560       -0.20170       -0.28210
Br        -3.73420       -0.64530        2.25650
C         -3.26110        0.16650       -2.38940
C         -2.06890        0.35920       -2.96030
N         -5.47750       -0.28440       -0.55530
C         -6.21550       -1.36520       -0.55950
C         -5.72630       -2.78660       -0.41640
C         -4.37870       -3.11340       -0.16350
C         -3.95810       -4.45460       -0.12730
C         -4.87210       -5.48950       -0.33940
C         -6.21090       -5.18810       -0.55630
C         -6.63250       -3.85970       -0.59130
N         -7.56760       -1.06360       -0.87200
C         -7.73710        0.34850       -0.74530
C         -6.29930        0.86330       -0.90230
H         -1.08280       -2.10460       -0.39020
H          1.27890       -2.00050        0.24120
H          4.39020       -0.57220        1.62490
H          3.52770       -1.37050        0.26380
H          2.98410       -1.64220        1.97460
H          0.82070        2.20160        1.08870
H         -1.56600        2.01820        0.46620
H         -4.14880        0.20640       -3.01090
H         -1.15300        0.34610       -2.38810
H         -1.99090        0.55010       -4.02390
H         -3.64220       -2.34910       -0.00890
H         -2.91910       -4.69720        0.05310
H         -4.55260       -6.52560       -0.33600
H         -6.93170       -5.98200       -0.71140
H         -7.67820       -3.70610       -0.77980
H         -8.35330       -1.72430       -0.93150
H         -8.10320        0.50670        0.29520
H         -8.46710        0.80650       -1.44820
H         -6.15170        1.72670       -0.21890
H         -6.09570        1.15300       -1.95380
