60

P          1.03490       -0.04570        0.08180
O         -0.18510       -1.09480        0.69140
C          0.19290       -2.39450        0.22760
C         -0.53580       -3.53320        0.91500
O          0.60720        1.39500        0.89740
C          0.64010        1.25090        2.27810
C         -0.04470        2.48580        2.86870
O          0.57540       -0.24840       -1.55630
C         -0.82220        0.06190       -1.67430
C         -1.36380       -0.33670       -3.04190
Pd         3.49490       -0.04570        0.08180
Br         3.49490        2.14020       -1.30740
C          3.49490       -1.86020        1.23510
C          3.71420       -3.08200        0.74740
P          5.95490       -0.04570        0.08180
N          7.20720       -1.08680        0.85300
C          8.63170       -0.80430        0.97950
C          6.66280       -1.81990        2.01140
N          6.41920       -0.51030       -1.56990
C          5.91700       -1.83850       -1.92570
C          6.11020        0.48590       -2.59240
N          6.26980        1.63270        0.58950
C          5.84710        1.80480        1.98570
C          7.66160        2.07400        0.41780
H          1.25400       -2.60750        0.41810
H          0.00550       -2.50350       -0.86260
H         -0.32360       -3.53400        2.00340
H         -0.15810       -4.49390        0.49050
H         -1.62380       -3.47030        0.72220
H          1.68680        1.22000        2.64470
H          0.06320        0.36130        2.62880
H          0.47090        3.41190        2.52900
H         -0.03720        2.45090        3.97430
H         -1.10210        2.53320        2.51640
H         -1.00810        1.14370       -1.50680
H         -1.47790       -0.52070       -0.99350
H         -0.86560        0.24220       -3.83830
H         -2.45800       -0.14260       -3.07340
H         -1.20700       -1.42920       -3.20690
H          3.28520       -1.75100        2.29420
H          3.92340       -3.24820       -0.29930
H          3.68350       -3.93050        1.42660
H          9.04420       -0.37460        0.04930
H          9.16210       -1.77130        1.14430
H          8.83800       -0.21660        1.89750
H          5.98570       -2.60810        1.65020
H          6.11910       -1.15290        2.71250
H          7.43920       -2.37840        2.57380
H          6.20480       -2.58220       -1.15350
H          6.38390       -2.17000       -2.87970
H          4.81260       -1.83050       -2.04120
H          6.47830        1.48700       -2.28740
H          5.02840        0.51290       -2.81850
H          6.64500        0.22060       -3.53020
H          4.75360        1.63450        2.07650
H          6.05980        2.83770        2.33630
H          6.38640        1.10510        2.66010
H          8.05950        1.79020       -0.57560
H          8.32240        1.70510        1.21980
H          7.71160        3.17870        0.50650
