85

P         -0.09400       -2.58900       -0.00200
N          0.19560       -0.86420       -0.32060
C          1.41920       -0.75070       -1.14330
C         -0.87990        0.00660       -0.77460
O         -1.39700       -2.51450        1.00520
C         -2.31860       -3.48150        0.81790
C         -2.69030       -4.22810        1.94790
C         -3.61490       -5.26120        1.85100
C         -4.21560       -5.54090        0.62980
C         -3.89070       -4.79360       -0.50040
C         -2.93020       -3.76040       -0.44980
C         -2.64680       -3.02940       -1.74240
C         -3.75510       -2.63300       -2.52410
C         -3.58620       -1.96780       -3.73920
C         -2.30840       -1.71900       -4.22880
C         -1.19430       -2.12740       -3.50120
C         -1.34140       -2.75550       -2.25540
O         -0.21290       -3.06520       -1.58680
Pd         1.42500       -4.05750        1.25810
Br         0.99570       -2.44380        3.13340
C          1.49010       -5.17230       -0.51080
C          0.42100       -5.80930       -0.99550
P          2.94400       -5.52600        2.51820
C          3.51910       -7.17680        1.73530
C          4.28830       -6.91820        0.41690
C          4.35880       -8.21560        2.51450
C          2.19370       -7.90840        1.40680
C          4.45100       -4.42240        2.93390
C          4.09020       -3.18750        3.76390
C          5.52210       -5.18280        3.74810
C          5.13240       -3.91440        1.64440
C          2.10930       -5.84050        4.11270
C          0.80540       -5.40850        4.34830
C          0.16740       -5.64960        5.57130
C          0.79840       -6.37710        6.61350
N          0.15490       -6.61020        7.90280
C         -1.15920       -6.07770        8.25220
C          0.77140       -7.37510        8.98650
C          2.09640       -6.87260        6.32620
C          2.72690       -6.60540        5.10910
H          2.23810       -1.38280       -0.72290
H          1.79670        0.29000       -1.16420
H          1.24100       -1.08700       -2.18670
H         -1.74740       -0.07220       -0.09460
H         -1.15870       -0.17800       -1.82280
H         -0.51070        1.05690       -0.72240
H         -2.21860       -4.02510        2.90360
H         -3.86470       -5.84580        2.72570
H         -4.93780       -6.34530        0.55360
H         -4.37560       -5.04630       -1.43660
H         -4.76550       -2.81210       -2.17840
H         -4.45120       -1.64560       -4.30420
H         -2.17910       -1.20210       -5.17060
H         -0.20560       -1.91960       -3.89020
H          2.38620       -5.19930       -1.10560
H         -0.52540       -5.79220       -0.46850
H          0.49600       -6.34690       -1.93750
H          5.36550       -6.75330        0.60150
H          3.93530       -6.03550       -0.11450
H          4.23590       -7.78740       -0.27450
H          5.39620       -7.91480        2.70750
H          4.47320       -9.12520        1.87720
H          3.87050       -8.55780        3.44100
H          1.48300       -7.28080        0.85480
H          1.67840       -8.21720        2.34110
H          2.36330       -8.81990        0.79210
H          3.54310       -3.46550        4.68880
H          3.54130       -2.46270        3.15110
H          5.01210       -2.64180        4.06840
H          5.15060       -5.52380        4.72740
H          6.39420       -4.53310        3.97240
H          5.94530       -6.01500        3.17660
H          4.41300       -3.35840        1.00920
H          5.57680       -4.71970        1.04720
H          5.98320       -3.24070        1.88860
H          0.26000       -4.88530        3.58610
H         -0.82120       -5.24390        5.64910
H         -1.65820       -5.49420        7.47030
H         -1.05890       -5.40850        9.13010
H         -1.84180       -6.91330        8.51700
H          1.76040       -7.80260        8.77310
H          0.11720       -8.23080        9.26100
H          0.89470       -6.72780        9.87940
H          2.67470       -7.47140        7.00570
H          3.70580       -7.02550        4.96240
