16

C          0.94280        0.05750        0.05850
O         -0.18520        0.05760        0.05880
Pd         3.09280        0.05750        0.05850
Br         3.06660       -1.46310       -1.89830
C          3.08320        1.33110        1.68680
C          3.09370        0.83690        2.92170
C          5.24280        0.05750        0.05850
N          5.99590        0.74230        0.94160
C          7.25990        0.45850        0.58130
C          7.22860       -0.38520       -0.50490
O          5.97310       -0.61420       -0.80330
H          3.07350        2.40420        1.52740
H          3.10550       -0.23650        3.07450
H          3.09170        1.50300        3.77830
H          8.14170        0.84030        1.07700
H          8.07890       -0.79740       -1.03220
