40

N          1.02400       -0.65300       -0.05500
C          1.01660        0.62750       -0.04150
C          2.22040        1.47310       -0.23620
C          3.32230        1.00070       -0.97270
C          4.45470        1.80130       -1.14600
C          4.50620        3.07420       -0.57550
C          3.41920        3.55470        0.15790
C          2.27600        2.76500        0.31820
N         -0.27130        1.14350        0.18660
C         -1.20180        0.04990        0.13180
C         -0.29290       -1.18900        0.18720
Pd         2.73940       -1.84140       -0.28990
Br         1.62630       -2.92070       -2.23570
C          3.60150       -0.96780        1.38950
C          3.00490       -1.05950        2.56750
N          4.45470       -3.02990       -0.52480
C          3.96730       -4.03160        0.44200
N          5.67150       -2.53380       -0.12660
C          6.61380       -3.00320       -0.86070
C          6.08900       -3.78940       -1.87550
C          4.72050       -3.75790       -1.70810
H          3.30440        0.02290       -1.43150
H          5.29320        1.43230       -1.72260
H          5.38840        3.68890       -0.70270
H          3.46300        4.53920        0.60510
H          1.45150        3.15530        0.89940
H         -0.53270        2.13950        0.15700
H         -1.71030        0.11300       -0.85720
H         -1.94930        0.05890        0.95110
H         -0.60270       -1.93310       -0.57560
H         -0.28670       -1.64840        1.19810
H          4.54220       -0.43060        1.29660
H          2.06540       -1.59950        2.65920
H          3.45160       -0.61020        3.45100
H          2.97790       -3.72740        0.83870
H          4.64900       -4.12340        1.31840
H          3.83280       -5.06610        0.04140
H          7.66100       -2.78560       -0.70040
H          6.63010       -4.31330       -2.65180
H          4.00410       -4.27070       -2.33340
