43

N         -1.38630        0.08660        0.32130
C         -0.69090        1.25590        0.18270
N          0.68450        1.23520        0.04900
C          1.40850        0.07530        0.12750
O          2.75490        0.04110       -0.11820
C          3.50610        1.16290       -0.46560
C          0.73800       -1.07110        0.49920
C         -0.63570       -1.01610        0.64560
Pd        -3.47390       -0.07290       -0.04080
Br        -4.04460        2.40280        0.64660
C         -3.14660       -2.18620       -0.67870
C         -2.14020       -3.05080       -0.79770
N         -5.55400       -0.32610       -0.38740
C         -6.27960        0.80610       -0.62340
C         -7.65010        0.81690       -0.80510
C         -8.34940       -0.36230       -0.81180
C         -7.65680       -1.54720       -0.67860
C         -8.33550       -2.74950       -0.83110
C         -7.61400       -3.92370       -0.88940
C         -6.29580       -3.94660       -0.43160
C         -5.48700       -5.19280       -0.35300
O         -4.33330       -5.15370        0.05610
C         -6.03990       -6.51780       -0.75950
C         -5.73210       -2.74340       -0.02230
C         -6.26890       -1.52080       -0.40510
H         -1.21910        2.17770        0.02990
H          4.55870        0.89580       -0.69720
H          3.50920        1.92680        0.34910
H          3.07420        1.62580       -1.37830
H          1.24610       -2.02120        0.63360
H         -1.06570       -1.92290        1.01840
H         -3.94860       -2.70970       -1.14880
H         -1.13290       -2.79850       -0.70450
H         -2.29740       -4.10310       -1.05820
H         -5.81120        1.73520       -0.78210
H         -8.15190        1.75250       -0.98060
H         -9.41570       -0.35030       -0.96890
H         -9.40000       -2.77720       -0.98990
H         -8.14160       -4.78420       -1.23710
H         -7.06450       -6.46660       -1.13570
H         -6.07420       -7.15430        0.14080
H         -5.42740       -6.97080       -1.56390
H         -4.80680       -2.77350        0.50690
