108

P          0.95780        0.01440       -0.08950
C          0.23920       -0.99700       -1.70210
C          0.70820       -2.47460       -1.94250
C          0.00610       -3.41420       -0.98790
C         -1.54290       -3.37430       -1.06460
C         -2.09630       -1.95770       -1.15160
C         -1.26440       -1.12210       -2.15910
C          0.27330       -0.87990        1.58290
C          0.32940       -2.36110        2.17540
C          1.61280       -2.67500        2.90570
C          1.66710       -1.84630        4.16280
C          1.61480       -0.34710        3.77940
C          0.39550       -0.01870        2.89520
C         -0.13270        1.63870       -0.53730
C         -1.66290        1.34640       -0.35650
C         -2.21320        1.49470        1.06020
C         -2.20020        2.91590        1.44340
C         -0.77300        3.47180        1.34910
C         -0.11690        3.16180       -0.03210
Pd         3.41780        0.01440       -0.08950
Br         3.41780       -2.57250        0.03790
C          3.41780        2.16180       -0.19530
C          2.84270        2.88150        0.75390
P          5.87780        0.01440       -0.08950
C          7.06460        1.51060       -0.36480
C          8.59890        1.30730       -0.36380
C          9.12640        0.79290       -1.71040
C          8.80550        1.79510       -2.83220
C          7.30730        2.00950       -2.91750
C          6.75640        2.46930       -1.56700
C          6.73730       -0.67320        1.46830
C          6.84990        0.30540        2.69470
C          5.54420        0.45380        3.47330
C          5.09370       -0.92430        3.94810
C          4.91050       -1.82240        2.73660
C          6.21690       -2.01750        1.98770
C          6.05370       -1.12780       -1.55520
C          5.41600       -0.93260       -2.83870
C          4.46470        0.17530       -3.21410
C          5.67940       -1.83110       -3.89320
C          6.52580       -2.91360       -3.72100
C          7.12810       -3.12650       -2.49380
C          6.90260       -2.24860       -1.42950
H          0.71850       -0.44520       -2.53720
H          1.79500       -2.56530       -1.90190
H          0.46320       -2.83760       -2.96750
H          0.40840       -2.98290       -0.12490
H          0.34720       -4.46830       -1.04140
H         -2.01370       -3.88620       -0.19060
H         -1.85570       -3.90860       -1.98120
H         -2.08570       -1.54950       -0.13450
H         -3.16780       -1.98350       -1.44720
H         -1.69650       -0.15110       -2.46460
H         -1.34670       -1.65010       -3.14040
H         -0.78270       -0.86680        1.33000
H         -0.00300       -3.27190        1.67270
H         -0.47380       -2.45220        2.94310
H          2.43020       -2.39330        2.28520
H          1.70340       -3.75750        3.13910
H          2.57760       -2.12590        4.73060
H          0.81560       -2.14340        4.81610
H          2.50960       -0.04860        3.21170
H          1.57030        0.23310        4.72730
H          0.36880        1.05620        2.70450
H         -0.48630       -0.25310        3.54370
H          0.13780        1.75160       -1.61780
H         -1.88590        0.39260       -0.57190
H         -2.24630        1.99060       -1.06420
H         -1.62820        0.92740        1.76480
H         -3.23400        1.05710        1.06120
H         -2.60930        2.99320        2.47940
H         -2.90470        3.45220        0.76420
H         -0.15160        3.04550        2.15390
H         -0.85300        4.56200        1.52270
H          0.81430        3.70870       -0.15690
H         -0.76550        3.72200       -0.75190
H          3.84150        2.69140       -1.01590
H          2.32360        2.40150        1.57380
H          2.83750        3.96610        0.66670
H          6.82970        2.13190        0.51650
H          8.95160        0.69700        0.47860
H          9.06560        2.30680       -0.20090
H          8.68030       -0.19450       -1.93760
H         10.22800        0.68520       -1.65360
H          9.17450        1.41820       -3.80970
H          9.29960        2.77100       -2.62770
H          6.86170        1.06610       -3.21950
H          7.07590        2.77120       -3.69670
H          5.70460        2.69980       -1.69500
H          7.23910        3.45270       -1.35420
H          7.77290       -0.87460        1.14740
H          7.23820        1.30410        2.43030
H          7.58470       -0.12150        3.41480
H          4.76620        0.91750        2.82540
H          5.67990        1.09890        4.36760
H          4.16040       -0.78760        4.50410
H          5.81550       -1.38950        4.65240
H          4.21450       -1.28670        2.07690
H          4.52420       -2.81940        3.03500
H          6.95510       -2.45360        2.70090
H          6.10220       -2.74410        1.16420
H          4.27280        0.86840       -2.38850
H          3.50070       -0.26070       -3.55810
H          4.86480        0.75090       -4.08280
H          5.22860       -1.68960       -4.86990
H          6.71720       -3.58720       -4.54770
H          7.79090       -3.97300       -2.36720
H          7.43040       -2.45290       -0.51680
