61

P          0.97380        0.09260        0.02710
C          0.07940       -0.84280        1.32760
C         -0.24330       -2.20820        1.12630
C         -0.71830       -2.99780        2.17240
C         -0.85380       -2.46010        3.44770
C         -0.51890       -1.12390        3.68170
C         -0.04600       -0.32340        2.63350
C          0.54500        1.79750        0.43290
C          1.53030        2.78450        0.58490
C          1.15960        4.09150        0.93050
C         -0.18760        4.41110        1.13540
C         -1.15580        3.42750        0.99370
C         -0.80450        2.13950        0.64140
C          0.34510       -0.75320       -1.44100
C         -1.04910       -0.78180       -1.63290
C         -1.60610       -1.54330       -2.66210
C         -0.77640       -2.27880       -3.50760
C          0.61270       -2.24640       -3.32760
C          1.17820       -1.48410       -2.29110
Pd         3.43380        0.09260        0.02710
Br         3.43380        1.46410       -2.17000
C          3.43380       -1.04580        1.85090
C          4.38340       -1.53640        2.64370
P          5.89380        0.09260        0.02710
C          7.29760       -0.57590        0.98610
C          6.33160       -0.55810       -1.61550
C          6.36920        1.79860        0.32840
C          5.98810        2.41420        1.53290
C          6.49680        3.67210        1.87310
C          7.39350        4.31820        1.01790
C          7.77320        3.71120       -0.18330
C          7.26170        2.45540       -0.53070
H         -0.10000       -2.67880        0.16820
H         -0.94580       -4.03680        1.99280
H         -1.19020       -3.08510        4.26280
H         -0.58630       -0.71960        4.68410
H          0.26330        0.68350        2.86660
H          2.57400        2.54770        0.44280
H          1.91440        4.85640        1.04780
H         -0.47410        5.41840        1.41520
H         -2.21110        3.66830        1.16370
H         -1.57980        1.38740        0.54750
H         -1.71510       -0.25280       -0.97450
H         -2.68270       -1.57750       -2.78520
H         -1.21660       -2.89160       -4.28660
H          1.24460       -2.83710       -3.97670
H          2.24790       -1.49440       -2.14510
H          2.43830       -1.26790        2.19220
H          5.42830       -1.43320        2.48730
H          4.06580       -2.09160        3.52850
H          7.20080       -1.68450        1.01620
H          7.20590       -0.21200        2.03620
H          8.28810       -0.28970        0.59870
H          6.04190       -1.63290       -1.63670
H          7.43460       -0.51630       -1.74740
H          5.83710       -0.02260       -2.44020
H          5.32980        1.90330        2.22550
H          6.21880        4.13360        2.81220
H          7.80990        5.27850        1.29500
H          8.48630        4.20170       -0.83250
H          7.60200        1.98010       -1.44030
