45

P          1.07360       -0.05360        0.04140
F         -0.58940       -0.00790        0.22620
F          1.05010        1.46140       -0.67060
F          0.95510       -1.45210       -0.87070
Pt         3.53360       -0.05360        0.04140
Br         3.46300       -0.75160       -2.34750
C          3.25830        0.47860        2.01700
C          2.74940        1.67930        2.31870
P          5.99360       -0.05360        0.04140
C          6.85950       -1.05650        1.31450
C          7.72520       -2.10700        0.94720
C          8.17190       -3.03430        1.90000
C          7.78670       -2.91850        3.23480
C          6.95850       -1.87210        3.62340
C          6.49140       -0.96020        2.67380
C          6.46200       -0.45860       -1.67020
C          6.64970        0.61930       -2.55530
C          7.02760        0.41110       -3.87840
C          7.21180       -0.88620       -4.35160
C          6.99510       -1.97350       -3.49840
C          6.60690       -1.76860       -2.16120
C          6.47440        1.56390        0.83430
C          5.90690        2.16070        1.97710
C          6.23310        3.46310        2.36910
C          7.16240        4.20590        1.64630
C          7.79860        3.62860        0.55390
C          7.45330        2.33010        0.14960
H          3.50610       -0.21860        2.80740
H          2.50040        2.38280        1.53040
H          2.60280        1.97250        3.35400
H          8.02260       -2.26860       -0.07250
H          8.79420       -3.86750        1.59790
H          8.11140       -3.64470        3.96700
H          6.64070       -1.78120        4.65590
H          5.80230       -0.23330        3.02520
H          6.48990        1.63730       -2.23490
H          7.17310        1.25970       -4.53500
H          7.51050       -1.04130       -5.37970
H          7.12650       -2.97870       -3.88060
H          6.43500       -2.62740       -1.53900
H          5.19710        1.69400        2.58740
H          5.73520        3.90420        3.21850
H          7.39150        5.21990        1.94590
H          8.53390        4.20070       -0.00230
H          7.96990        1.94110       -0.70930
