27

P          0.94390       -0.05050        0.06560
Cl        -1.09310        0.25150       -0.17730
Cl         0.92560       -1.45100       -1.46410
Cl         0.59250       -0.65240        2.02390
Pt         3.40390       -0.05050        0.06560
Br         3.39560       -2.17430        1.38660
C          3.22280        1.36240        1.59630
C          3.07760        1.03700        2.86860
P          5.86390       -0.05050        0.06560
O          7.33410        0.31390       -0.75010
C          8.47420        0.03310        0.00200
O          6.08740        1.18180        1.22510
C          6.39670        0.59160        2.46480
O          6.11790       -1.73580        0.09540
C          5.68850       -2.25130       -1.14440
H          3.23520        2.42010        1.31190
H          3.04720       -0.00340        3.17800
H          2.94730        1.80090        3.62760
H          9.32390       -0.02980       -0.70520
H          8.42770       -0.94090        0.51510
H          8.68640        0.87550        0.69360
H          6.86820        1.36660        3.10360
H          7.12850       -0.24050        2.39410
H          5.48610        0.23910        2.97670
H          6.03030       -3.30300       -1.21980
H          6.13620       -1.71520       -2.01150
H          4.58030       -2.25420       -1.21340
