44

P          1.07210       -0.05060       -0.04730
C         -0.35600       -0.88960       -0.83390
C          0.85760       -0.90040        1.54980
C          0.36710        1.57530       -0.34180
C         -0.66600        2.06620        0.47100
C         -1.35480        3.22780        0.09510
C         -1.02600        3.88800       -1.09740
C          0.00320        3.39860       -1.90040
C          0.69380        2.23980       -1.53020
Pt         3.53210       -0.05060       -0.04730
Br         3.53210        1.87030        1.69000
C          3.53210       -1.64520       -1.48950
C          2.56850       -2.35510       -2.07810
N          5.63210       -0.05060       -0.04730
C          6.33930        1.13940        0.06910
C          5.72590        2.49650       -0.14030
C          7.73880        1.16530        0.16150
C          8.46290       -0.00660        0.11140
C          7.79010       -1.20170       -0.04050
C          6.37880       -1.23210       -0.09910
C          5.82660       -2.62770        0.02010
H         -1.33380       -0.58580       -0.42260
H         -0.25750       -1.99040       -0.71380
H         -0.32290       -0.67100       -1.92620
H         -0.22180       -0.97570        1.80530
H          1.38470       -0.36280        2.35850
H          1.26460       -1.93100        1.45870
H         -0.96600        1.53460        1.36330
H         -2.17520        3.59060        0.70380
H         -1.58180        4.76550       -1.39750
H          0.24310        3.89740       -2.83140
H          1.44920        1.83910       -2.19290
H          4.50870       -1.89640       -1.86430
H          1.52970       -2.24350       -1.87980
H          2.85900       -3.09900       -2.81220
H          4.69380        2.41950       -0.52770
H          6.26770        3.00870       -0.96470
H          5.82620        3.12920        0.76830
H          8.27930        2.10440        0.23660
H          9.54180        0.01430        0.17990
H          8.37240       -2.11640       -0.04100
H          6.31960       -3.13440        0.87580
H          6.02720       -3.22330       -0.89600
H          4.76100       -2.63230        0.31840
