65

P          1.08220       -0.05580        0.01170
C         -0.00110        1.42450       -0.07650
C          0.57770        2.62460       -0.57290
C         -0.07990        3.86220       -0.49470
C          0.63550        5.14930       -0.85460
C         -1.39040        3.88230       -0.02810
C         -2.02300        2.69720        0.37770
C         -1.31820        1.47610        0.38050
C          0.87540       -0.65560       -1.68280
C          1.99950       -0.88360       -2.48060
C          1.87360       -1.39820       -3.77520
C          3.10010       -1.70510       -4.58170
C          0.59680       -1.64100       -4.29930
C         -0.53850       -1.38230       -3.52440
C         -0.40320       -0.90070       -2.21630
C          0.42840       -1.02720        1.38020
C          0.55520       -0.53930        2.68900
C         -0.01370       -1.23620        3.76840
C          0.10180       -0.71140        5.17020
C         -0.71050       -2.42920        3.52810
C         -0.83610       -2.91950        2.22500
C         -0.27010       -2.22150        1.15200
Pt         3.54220       -0.05580        0.01170
Br         3.39390       -2.56920       -0.19410
C          3.52780        2.03170        0.25930
C          4.46090        2.86260       -0.22470
N          5.64220       -0.05580        0.01170
C          6.27220       -1.14870       -0.51540
C          7.65730       -1.28120       -0.50560
C          8.44090       -0.30640        0.12810
O          9.79020       -0.41340        0.22510
C         10.53720       -1.44970       -0.29410
C          7.80400        0.79080        0.69460
C          6.41480        0.91020        0.61400
H          1.55890        2.63140       -0.99750
H          1.69960        4.98270       -1.12970
H          0.64480        5.82480        0.03030
H          0.12990        5.67680       -1.68940
H         -1.92340        4.82730        0.02660
H         -3.03540        2.73570        0.72800
H         -1.80370        0.57950        0.74490
H          2.98430       -0.67970       -2.09380
H          4.02720       -1.48770       -4.00710
H          3.10880       -1.10170       -5.51110
H          3.10860       -2.78570       -4.83910
H          0.48320       -2.03310       -5.30290
H         -1.52310       -1.56790       -3.93630
H         -1.29320       -0.72050       -1.62680
H          1.07940        0.39250        2.86280
H          0.67630        0.23860        5.20390
H          0.61880       -1.45780        5.80880
H         -0.91120       -0.52030        5.58450
H         -1.16180       -2.97440        4.34920
H         -1.38390       -3.83650        2.04740
H         -0.39480       -2.60590        0.14870
H          2.67080        2.49690        0.72160
H          5.28370        2.49820       -0.82840
H          4.37170        3.93730       -0.11330
H          5.72320       -1.92090       -1.01510
H          8.09520       -2.15130       -0.96500
H         11.60270       -1.30520       -0.03180
H         10.43550       -1.46840       -1.40060
H         10.19900       -2.42230        0.13000
H          8.37690        1.54060        1.23010
H          5.98680        1.72580        1.16320
