55

P          1.05350        0.00680        0.08420
C          0.27550       -0.86040        1.54350
C         -1.25310       -0.98990        1.64120
C          0.87920       -2.27580        1.61650
C          0.68800        1.81970        0.21770
C          1.25540        2.52210       -1.01830
C         -0.81800        2.12020        0.26470
C          0.31470       -0.96760       -1.27410
Pt         3.51350        0.00680        0.08420
Br         3.51350        1.25780        2.35210
C          3.51350       -1.03170       -1.79830
C          3.04190       -0.56530       -2.95170
C          5.66350        0.00680        0.08420
N          6.38510       -1.04980        0.25670
C          5.84420       -2.32580        0.68040
C          6.44110       -2.71430        2.05190
C          7.78820       -0.71630        0.22180
C          7.81220        0.72130       -0.28410
N          6.45840        1.16650       -0.06840
C          5.96450        2.44750       -0.51650
C          5.33150        2.34400       -1.90670
H          0.63470       -0.32320        2.44820
H         -1.68100       -1.54080        0.78330
H         -1.77760       -0.03940        1.76820
H         -1.49910       -1.56240        2.56370
H          0.53190       -2.91140        0.77660
H          0.58390       -2.78230        2.55960
H          1.99000       -2.23180        1.59140
H          1.15910        2.25410        1.12070
H          0.78250        2.12880       -1.94570
H          2.35030        2.37910       -1.07740
H          1.05260        3.61460       -0.96580
H         -1.35750        1.61650       -0.56850
H         -1.00620        3.21200        0.18830
H         -1.24560        1.84280        1.23530
H         -0.79060       -0.89820       -1.19120
H          0.62000       -2.02840       -1.26350
H          0.55680       -0.51020       -2.24840
H          3.98590       -2.00850       -1.79460
H          2.57490        0.40750       -3.02390
H          3.11690       -1.19040       -3.83900
H          6.06750       -3.11650       -0.05610
H          4.73730       -2.25430        0.80820
H          7.53610       -2.88390        1.95480
H          5.98580       -3.64950        2.43060
H          6.27310       -1.90800        2.79780
H          8.38490       -1.40360       -0.41510
H          8.15740       -0.74320        1.26930
H          7.98350        0.70640       -1.38660
H          8.58340        1.34280        0.21440
H          6.81550        3.16350       -0.58530
H          5.22810        2.84770        0.20960
H          6.06270        1.94580       -2.64340
H          4.99740        3.34640       -2.24830
H          4.45340        1.67160       -1.88100
