64

P          0.93980        0.03850        0.06990
C         -0.06200       -0.16140        1.56750
C         -1.44760        0.06080        1.60180
C         -2.13120        0.01860        2.81980
C         -1.44850       -0.25140        4.02240
C         -2.16470       -0.26550        5.33960
C         -0.06700       -0.48600        3.98160
C          0.61730       -0.43010        2.76680
C          0.41150        1.74020       -0.24300
C          0.77900        2.74650        0.66580
C          0.29590        4.04870        0.51950
C         -0.57200        4.36660       -0.53450
C         -1.14760        5.75090       -0.65500
C         -0.92100        3.36800       -1.46150
C         -0.43210        2.06060       -1.31610
C          0.51730       -1.56350       -0.70820
C         -0.38370       -2.50650       -0.15870
C         -0.69820       -3.68240       -0.84370
C         -0.11840       -3.95760       -2.08660
C         -0.41670       -5.24660       -2.79870
C          0.75800       -3.02190       -2.65300
C          1.06350       -1.83390       -1.97470
Pt         3.39980        0.03850        0.06990
Br         3.39980       -2.28810        1.20790
C          3.39980        1.96990       -0.87470
C          4.32560        2.92610       -0.75110
N          5.49980        0.03850        0.06990
C          6.26890        0.60340       -0.94150
C          5.71280        0.97630       -2.29850
C          7.67090        0.58690       -0.87810
C          8.30930       -0.03390        0.17970
C          7.54860       -0.67640        1.14430
C          6.15310       -0.65030        1.05950
H         -1.98210        0.30150        0.69250
H         -3.19830        0.21740        2.83690
H         -3.24220       -0.02230        5.21940
H         -1.71500        0.49260        6.01780
H         -2.07580       -1.26570        5.81040
H          0.48100       -0.68720        4.89490
H          1.68940       -0.57590        2.77240
H          1.42290        2.51550        1.50530
H          0.58000        4.80230        1.24440
H         -0.79660        6.41260        0.16660
H         -2.25600        5.69350       -0.58940
H         -0.86600        6.21160       -1.62370
H         -1.59230        3.60060       -2.27910
H         -0.73720        1.29550       -2.01960
H         -0.87490       -2.36340        0.78790
H         -1.39720       -4.38030       -0.39830
H         -1.12090       -5.88120       -2.21800
H          0.52930       -5.81460       -2.92330
H         -0.85950       -5.05350       -3.79800
H          1.20270       -3.21360       -3.62220
H          1.73440       -1.12310       -2.44100
H          2.52330        2.24920       -1.43960
H          5.21410        2.79870       -0.14930
H          4.17510        3.87710       -1.25590
H          4.65950        0.66420       -2.42930
H          6.22970        0.36640       -3.07040
H          5.89180        2.03900       -2.56110
H          8.26600        0.99940       -1.68620
H          9.39080       -0.06230        0.22140
H          8.03730       -1.18890        1.96190
H          5.61460       -1.12770        1.85550
