52

P          0.97580       -0.02950       -0.09240
C          0.04720       -1.55910        0.15780
C         -1.33980       -1.63770        0.31950
C         -1.93140       -2.88550        0.57800
C         -1.13760       -4.04150        0.67100
Cl        -1.87450       -5.59900        1.00720
C          0.23710       -3.95250        0.51480
C          0.82770       -2.70700        0.25350
C          0.39830        0.85060        1.37950
C          0.28370        0.21510        2.62980
C         -0.21090        0.93800        3.72930
C         -0.58890        2.27380        3.57830
Cl        -1.22210        3.16890        4.95140
C         -0.47130        2.89860        2.33460
C          0.01760        2.18670        1.23720
C          0.48680        0.30000       -1.81500
C         -0.43560       -0.47880       -2.56060
C         -0.85260       -0.05480       -3.82080
C         -0.36120        1.12920       -4.37000
Cl        -0.90690        1.66250       -5.95080
C          0.55680        1.89700       -3.65600
C          0.97200        1.48860       -2.38060
Pt         3.43580       -0.02950       -0.09240
Br         3.74020       -1.01160       -2.34500
C          3.37130        1.01510        1.70860
C          4.06350        2.15820        1.73070
O          5.48580       -0.02950       -0.09240
C          6.04310       -0.18750        1.19540
C          5.57620       -1.55820        1.70920
C          7.56570       -0.18590        1.08130
H         -1.95780       -0.74980        0.26620
H         -3.00450       -2.95660        0.71230
H          0.86710       -4.83670        0.59170
H          1.90640       -2.66500        0.15480
H          0.56880       -0.81330        2.75980
H         -0.30180        0.44800        4.69070
H         -0.76190        3.93280        2.21400
H          0.09940        2.68150        0.28050
H         -0.87090       -1.38080       -2.17930
H         -1.58220       -0.64560       -4.36850
H          0.92550        2.82140       -4.07240
H          1.65940        2.12030       -1.83040
H          2.66590        0.88960        2.50520
H          4.63110        2.45250        0.84940
H          3.97120        2.85770        2.55410
H          5.81180        0.59830        1.91260
H          5.87930       -2.35630        0.99650
H          4.47460       -1.58990        1.80470
H          6.02680       -1.78810        2.70210
H          7.90970       -0.97240        0.37580
H          8.02260       -0.37800        2.07830
H          7.91470        0.80250        0.71940
