72

P          1.03360        0.03140        0.08880
C          0.18610       -0.03530       -1.51160
C         -1.19670       -0.14330       -1.69630
C         -1.71650       -0.33360       -2.98780
C         -0.85360       -0.43840       -4.10270
O         -1.30020       -0.68620       -5.36110
C         -2.60520       -0.95710       -5.71240
C          0.52270       -0.31370       -3.90940
C          1.03660       -0.11540       -2.63120
C          0.54220       -1.62020        0.66110
C          0.84650       -2.76560       -0.09300
C          0.45410       -4.03430        0.35080
C         -0.24210       -4.18350        1.57210
O         -0.63140       -5.39590        2.05270
C         -0.43430       -6.61580        1.43320
C         -0.54810       -3.03860        2.31460
C         -0.16410       -1.76590        1.86760
C          0.39010        1.59840        0.77180
C         -0.47670        2.46870        0.08660
C         -1.08770        3.53570        0.75850
C         -0.84300        3.76780        2.12670
O         -1.44640        4.76060        2.82700
C         -2.40110        5.62480        2.32770
C          0.04740        2.91880        2.79930
C          0.65140        1.84680        2.13200
Pt         3.49360        0.03140        0.08880
Br         3.49360        2.31350       -1.13620
C          3.49360       -1.86290        1.10570
C          4.26230       -2.93430        0.85460
N          5.59360        0.03140        0.08880
C          6.53720        0.81430       -0.71440
N          6.28770        1.76920       -1.80850
C          6.11330        3.19970       -1.48080
C          7.00680        1.66460       -3.10570
C          7.94470        0.59050       -0.58490
C          8.45780       -0.33550        0.27710
C          7.59850       -1.02780        1.07730
C          6.21940       -0.82190        0.98650
H         -1.86330       -0.10890       -0.84740
H         -2.78600       -0.43360       -3.10330
H         -2.65450       -1.16200       -6.80220
H         -3.25370       -0.08700       -5.48040
H         -2.96440       -1.85970       -5.17190
H          1.20190       -0.40520       -4.75100
H          2.11430       -0.06820       -2.51050
H          1.39050       -2.68160       -1.02940
H          0.71000       -4.89050       -0.25750
H         -0.81990       -7.43040        2.08330
H          0.64820       -6.79340        1.26450
H         -0.98420       -6.65320        0.46820
H         -1.07500       -3.13590        3.25860
H         -0.41660       -0.89990        2.46030
H         -0.73580        2.31680       -0.94770
H         -1.77930        4.16150        0.21020
H         -2.72740        6.31910        3.12910
H         -3.28970        5.05590        1.97540
H         -1.97660        6.22020        1.49300
H          0.24290        3.06850        3.85590
H          1.29050        1.17770        2.69720
H          2.70050       -2.03190        1.81980
H          5.02940       -2.92390        0.09020
H          4.10190       -3.85020        1.41720
H          5.90800        3.36520       -0.41120
H          5.32810        3.60950       -2.16060
H          6.89920        3.89510       -1.85120
H          7.86490        0.96240       -3.11550
H          7.46610        2.62950       -3.44350
H          6.32600        1.36550       -3.92300
H          8.66970        1.12160       -1.17670
H          9.52710       -0.50060        0.33180
H          8.00380       -1.73250        1.79190
H          5.70450       -1.35390        1.74170
