27

P          0.94080        0.05500        0.05880
C         -0.19230       -1.36600       -0.11930
C          0.64260        0.29430        1.84390
C          0.01220        1.10520       -1.10810
Pt         3.40080        0.05500        0.05880
Br         3.40080       -1.56520        2.07950
C          3.40080        1.40000       -1.61850
C          2.90320        2.63230       -1.56900
C          5.55080        0.05500        0.05880
N          6.30740       -0.64250        0.92890
C          7.56480       -0.35870        0.56800
C          7.53510        0.50140       -0.50430
O          6.27520        0.73750       -0.79670
H         -1.24130       -1.12360        0.13370
H          0.16640       -2.17980        0.54980
H         -0.12570       -1.75060       -1.15990
H         -0.45100        0.35950        2.02330
H          1.11360        1.23860        2.18130
H          1.00600       -0.55180        2.44900
H         -1.07520        1.01360       -0.87540
H          0.17270        0.78160       -2.15400
H          0.26520        2.17080       -0.96750
H          3.86850        1.05540       -2.53500
H          2.44660        3.01130       -0.66360
H          2.94860        3.26270       -2.45290
H          8.45240       -0.74590        1.04960
H          8.37920        0.91920       -1.03670
