65

P          1.05030       -0.04020       -0.07650
C          0.58300       -1.59360       -0.90220
C         -0.73950       -2.06520       -0.79310
C         -1.14380       -3.25080       -1.40150
C         -0.21680       -4.01200       -2.10340
C          1.11180       -3.58810       -2.19320
C          1.51310       -2.37580       -1.60240
C          0.86230        0.05680        1.72160
C          1.74510        0.82130        2.50020
C          1.56970        0.90360        3.89230
C          0.52990        0.21220        4.51270
C         -0.31980       -0.59220        3.75900
C         -0.14730       -0.67810        2.37530
C         -0.15940        1.20240       -0.88750
C         -1.70740        1.12510       -0.75860
C         -2.20180        1.51090        0.64110
C         -1.73900        2.92940        1.01800
C         -0.22830        3.11710        0.83620
C          0.21040        2.68080       -0.56810
Pt         3.51030       -0.04020       -0.07650
Br         3.51030       -2.18580        1.37420
C          3.51030        1.74090       -1.28080
C          3.44500        1.64470       -2.60500
P          5.97030       -0.04020       -0.07650
O          6.88060       -1.45550       -0.47850
C          8.27650       -1.30390       -0.43450
C          8.65170        0.05990        0.09980
C         10.18130        0.19450        0.18480
C          8.07740        1.11590       -0.91000
O          6.67840        1.05250       -1.16200
O          6.54900       -0.32070        1.49070
C          7.91440        0.16260        1.49580
H         -1.48360       -1.53370       -0.23430
H         -2.17350       -3.57820       -1.31090
H         -0.53490       -4.94700       -2.55620
H          1.82570       -4.20090       -2.72400
H          2.54460       -2.06490       -1.67940
H          2.54940        1.36960        2.02570
H          2.23320        1.52220        4.47710
H          0.38890        0.29290        5.58380
H         -1.12250       -1.13770        4.23940
H         -0.82640       -1.30940        1.82740
H          0.05970        1.07270       -1.97000
H         -2.13210        0.17960       -1.11610
H         -2.14270        1.87170       -1.46410
H         -1.84250        0.78190        1.37110
H         -3.31200        1.48210        0.66950
H         -2.01930        3.15250        2.07110
H         -2.25590        3.65670        0.35840
H          0.30280        2.54700        1.59410
H          0.03560        4.18310        1.00470
H          1.28600        2.86830       -0.70720
H         -0.31140        3.34720       -1.29360
H          3.59120        2.71180       -0.80360
H          3.38160        0.66810       -3.07180
H          3.46000        2.53810       -3.22070
H          8.69130       -1.47140       -1.45440
H          8.68840       -2.09510        0.23320
H         10.63170        0.03230       -0.82230
H         10.60460       -0.57450        0.86550
H         10.47310        1.20200        0.54010
H          8.58480        0.96630       -1.89140
H          8.32650        2.13720       -0.55910
H          8.46960       -0.48410        2.20870
H          7.96930        1.20480        1.87660
