71

P          0.90640       -0.03490       -0.00520
C          0.45170       -1.12800       -1.44910
C         -0.26840       -0.63610       -2.56730
C         -0.58760       -1.46560       -3.65540
C         -0.19040       -2.80230       -3.66770
C          0.48770       -3.31800       -2.57520
C          0.77250       -2.50100       -1.47870
C          0.41170       -0.67060        1.61460
C         -0.25190       -1.89760        1.74940
C         -0.69810       -2.32820        2.99970
C         -0.49930       -1.54800        4.13660
C          0.16190       -0.32260        4.01310
C          0.62580        0.10910        2.75700
C         -0.21990        1.41440       -0.18820
C         -1.71480        1.35170       -0.21920
C         -2.48390        0.17810       -0.10370
C         -3.88570        0.25900       -0.14650
C         -4.52100        1.49290       -0.32550
C         -3.76260        2.65670       -0.44800
C         -2.37260        2.58220       -0.40010
Pt         3.36640       -0.03490       -0.00520
Br         3.36640       -2.59550        0.38390
C          3.36640        2.09070       -0.32810
C          2.63530        2.98390        0.33210
C          5.51640       -0.03490       -0.00520
N          6.34840       -1.18320       -0.13360
C          6.23920       -2.65160       -0.43020
C          7.07040       -3.10170       -1.65180
C          6.62400       -3.50060        0.80250
C          7.61710       -0.75700       -0.07080
C          7.64580        0.56060        0.01920
N          6.39140        1.06230        0.07270
C          6.33730        2.54100        0.24190
C          7.13810        3.00980        1.47820
C          6.87810        3.22460       -1.03220
H         -0.60190        0.38930       -2.61310
H         -1.14870       -1.07370       -4.49260
H         -0.42000       -3.44160       -4.51020
H          0.78810       -4.36000       -2.56400
H          1.22760       -2.99370       -0.67500
H         -0.45060       -2.51510        0.89260
H         -1.22350       -3.27370        3.08800
H         -0.86130       -1.87530        5.09600
H          0.31070        0.29720        4.89160
H          1.10530        1.06720        2.69360
H          0.10510        1.91470       -1.12380
H          0.01280        2.09560        0.64380
H         -2.01920       -0.78200        0.03410
H         -4.48020       -0.63880       -0.04610
H         -5.59960        1.55550       -0.36190
H         -4.24580        3.61610       -0.59110
H         -1.80530        3.49350       -0.50140
H          4.06020        2.44800       -1.07930
H          1.99630        2.69360        1.14810
H          2.75250        4.03900        0.09800
H          5.30010       -2.91140       -0.86650
H          8.16250       -3.02830       -1.49920
H          6.77770       -2.50770       -2.54350
H          6.85100       -4.17450       -1.87260
H          7.69450       -3.35480        1.07010
H          6.47370       -4.58410        0.60030
H          6.01270       -3.22660        1.68700
H          8.50730       -1.36960       -0.13540
H          8.57190        1.11770        0.04550
H          5.35470        2.92150        0.45580
H          8.20130        2.69720        1.45880
H          6.67800        2.60100        2.40130
H          7.14070        4.11840        1.53620
H          7.96500        3.03510       -1.16980
H          6.72600        4.32250       -0.97850
H          6.34920        2.84030       -1.93080
