43

P          1.27500        0.00000        0.00000
N          0.28330        0.84880       -1.21230
C         -1.15460        0.71340       -1.08240
C         -1.48100       -0.10370        0.16070
C         -3.01210       -0.19330        0.28460
C         -0.85460       -1.53920       -0.04700
N          0.60070       -1.56900       -0.37390
N          0.60930        0.91950        1.32710
C         -0.85430        0.63410        1.40660
Pt         3.73500        0.00030       -0.00050
Br         3.73470        2.57770        0.25460
C          3.73520       -2.13920       -0.21220
C          3.23190       -2.92570        0.73890
C          5.88500        0.00060       -0.00090
N          6.76500        1.07830       -0.15360
C          6.66410        2.52330       -0.45010
C          8.00630        0.60060        0.00410
Cl         9.51860        1.53000       -0.07160
C          7.97700       -0.72910        0.18470
Cl         9.40860       -1.73020        0.38730
N          6.68150       -1.13390        0.18820
C          6.40230       -2.56520        0.37190
H          0.59640        0.57320       -2.17200
H         -1.57470        0.22910       -1.99610
H         -1.59360        1.73180       -1.01800
H         -3.45070       -0.66800       -0.62080
H         -3.45240        0.82220        0.37530
H         -3.29990       -0.79030        1.17540
H         -1.39960       -2.06610       -0.86490
H         -1.02560       -2.13060        0.87840
H          0.74430       -1.73780       -1.39720
H          0.77050        1.93220        1.11830
H         -1.38740        1.59780        1.56280
H         -1.04670        0.01450        2.30750
H          4.06340       -2.56770       -1.15200
H          2.85220       -2.49550        1.65810
H          3.19260       -4.00020        0.58960
H          5.79880        2.82290       -1.02830
H          7.43120        2.78590       -1.20570
H          6.91000        3.11690        0.46450
H          7.30990       -3.16120        0.55680
H          6.03590       -2.99690       -0.57720
H          5.76150       -2.73000        1.25660
