67

P          0.92360       -0.06200        0.01800
C         -0.15440       -1.71740       -0.17300
C         -0.04600       -2.94050        0.83930
C         -0.90190       -2.84950        2.08270
C         -2.37950       -2.81250        1.66220
C         -2.71750       -1.78020        0.55840
C         -1.68050       -1.75310       -0.56620
C          0.42570        0.55300        1.82570
C          0.88430        1.92420        2.40430
C          0.12530        3.15050        1.81980
C         -1.39770        3.01840        1.91020
C         -1.86080        1.64680        1.41610
C         -1.08290        0.58810        2.20200
C          0.48950        1.06440       -1.51640
C         -0.26300        0.77200       -2.73980
C         -0.74810       -0.53430       -3.28020
C         -0.59990        1.81690       -3.65470
C         -0.18910        3.11630       -3.47400
C          0.58960        3.41360       -2.39100
C          0.89880        2.41660       -1.46550
Pt         3.38360       -0.06200        0.01800
Br         3.45230        2.38250        0.49950
C          3.49240       -2.03250       -0.55710
C          2.94840       -2.89860        0.23170
N          5.48360       -0.06200        0.01800
C          6.26330        1.08500       -0.16990
F          5.78690        2.28580       -0.52960
C          7.66130        1.06170       -0.15490
C          8.33400       -0.11570        0.06090
F          9.69440       -0.13530        0.08180
C          7.61050       -1.26840        0.26020
C          6.19990       -1.24080        0.21900
F          5.65510       -2.42130        0.55030
H          0.39090       -2.12280       -1.04560
H          0.88290       -3.27300        1.22780
H         -0.36610       -3.85900        0.29250
H         -0.53030       -2.03420        2.71900
H         -0.74740       -3.75960        2.70700
H         -3.02340       -2.67630        2.55410
H         -2.58890       -3.81760        1.23810
H         -2.88730       -0.75720        0.88450
H         -3.71770       -2.03080        0.14990
H         -1.99350       -0.97020       -1.25200
H         -1.82750       -2.73530       -1.08360
H          0.88250       -0.21440        2.48650
H          1.96340        2.01200        2.42670
H          0.65670        1.93330        3.49520
H          0.31770        3.27410        0.78150
H          0.45500        4.08850        2.31290
H         -1.89510        3.82550        1.32620
H         -1.70220        3.12680        2.97220
H         -1.70230        1.50290        0.32540
H         -2.95300        1.56230        1.61730
H         -1.50400       -0.37140        2.17100
H         -1.22970        0.80130        3.28850
H         -0.38250       -1.41030       -2.76600
H         -0.36380       -0.66010       -4.31400
H         -1.85920       -0.52430       -3.35150
H         -1.19240        1.61250       -4.54190
H         -0.45990        3.89760       -4.18040
H          0.94380        4.42920       -2.24040
H          1.46480        2.79460       -0.70880
H          4.20330       -2.43410       -1.27400
H          2.59120       -2.41870        1.12810
H          3.09020       -3.97030        0.11260
H          8.22140        1.96870       -0.34890
H          8.12520       -2.19580        0.46200
