62

P          1.01940       -0.02770       -0.09410
C          0.03610       -0.08210       -1.73670
C         -1.47730       -0.10620       -1.54250
C          0.37600        1.15290       -2.62970
C          0.35500       -1.38610       -2.55920
C          0.47550       -1.66900        0.61870
C          1.13090       -2.88560        0.32190
C          0.68880       -4.11240        0.85530
C         -0.43130       -4.15810        1.68260
C         -1.13450       -2.98960        1.93780
C         -0.70300       -1.77590        1.39600
C          0.46350        1.53520        0.72980
C         -0.30740        1.51390        1.91570
C         -0.82900        2.67930        2.47810
C         -0.56980        3.91110        1.89340
C          0.22370        3.97500        0.74770
C          0.73960        2.80080        0.17070
Pt         3.47940       -0.02770       -0.09410
Br         3.28500       -0.11990        2.37590
C          3.59090        0.03440       -2.19310
C          4.61740        0.35680       -2.95270
N          5.57940       -0.02770       -0.09410
C          6.34760       -1.14220        0.24150
N          5.77200       -2.42680        0.58410
C          4.41880       -2.79750        0.25740
C          6.49770       -3.41990        1.37280
C          7.75590       -1.02500        0.20650
C          8.35850        0.20140        0.00250
C          7.57190        1.32630       -0.17690
C          6.18290        1.18980       -0.24970
H         -1.82260        0.77130       -0.96790
H         -1.78640       -1.04730       -1.04750
H         -1.96870       -0.08600       -2.54510
H         -0.02640        2.09020       -2.21770
H         -0.05660        1.04970       -3.64740
H          1.44490        1.34890       -2.78220
H          0.08830       -2.29470       -1.99450
H          1.37620       -1.59020       -2.90070
H         -0.23600       -1.40120       -3.50100
H          1.96780       -2.90840       -0.34090
H          1.20460       -5.03690        0.62380
H         -0.77730       -5.09770        2.10040
H         -2.03060       -3.02210        2.54650
H         -1.34630       -0.94840        1.57980
H         -0.53560        0.62390        2.44650
H         -1.44040        2.62040        3.37180
H         -0.97730        4.81160        2.33780
H          0.42830        4.94010        0.30340
H          1.34050        2.89670       -0.71930
H          2.72480       -0.17060       -2.76370
H          5.56300        0.70550       -2.57240
H          4.50250        0.35950       -4.03500
H          3.95090       -2.06710       -0.41190
H          3.83640       -2.91140        1.19840
H          4.40600       -3.77960       -0.26780
H          7.49390       -3.09380        1.71390
H          6.60820       -4.36760        0.80220
H          5.93310       -3.62540        2.30560
H          8.41440       -1.87030        0.33810
H          9.43920        0.27300        0.01690
H          8.04260        2.29570       -0.26370
H          5.57540        2.07410       -0.37930
