95

P          1.07120        0.06960       -0.00930
C         -0.40030        1.34680       -0.16950
C         -0.65720        2.48300        0.88900
C          0.28100        3.70420        0.79510
C          0.42850        4.26810       -0.63950
C          0.65850        3.15920       -1.66370
C         -0.41740        2.10040       -1.49980
C          0.86330       -1.05420       -1.60060
C         -0.51610       -1.74230       -1.86770
C         -1.53860       -0.88990       -2.65400
C         -0.97780       -0.60220       -4.06330
C          0.43430        0.04040       -4.06880
C          1.40710       -0.63150       -3.03370
C          0.32930       -0.84110        1.46360
C          1.00410       -1.04690        2.69680
C          2.34570       -0.51400        2.95210
C          0.39130       -1.73890        3.76180
C         -0.90420       -2.21960        3.65010
C         -1.61350       -1.98900        2.48300
C         -1.01530       -1.30870        1.41930
Pt         3.53120        0.06960       -0.00930
Br         3.53120       -2.49460        0.35540
C          3.53120        2.19820       -0.31210
C          3.41000        3.08780        0.65490
C          5.68120        0.06960       -0.00930
N          6.49650        0.91250        0.72150
C          6.16380        1.87630        1.77960
C          5.41970        1.17680        2.93540
C          6.26180        0.12680        3.68760
C          5.48960       -0.51330        4.84880
C          7.76450        0.56600        0.41690
C          7.74510       -0.44440       -0.49720
C          8.93860       -0.92080       -1.06400
C         10.15760       -0.40970       -0.59050
C         10.17300        0.57130        0.42300
C          8.97080        1.07900        0.91600
N          6.45170       -0.79280       -0.74530
C          6.02170       -1.74130       -1.78220
C          6.56330       -3.16270       -1.56520
C          6.25850       -4.04090       -2.78400
C          6.92210       -5.40560       -2.63880
H         -1.31890        0.75360       -0.15420
H         -0.69240        2.09590        1.92600
H         -1.66430        2.90850        0.66800
H          1.20720        3.36770        1.20480
H         -0.04710        4.53410        1.45930
H          1.25100        5.01950       -0.69540
H         -0.51120        4.78720       -0.92570
H          1.61380        2.67050       -1.55890
H          0.64970        3.58420       -2.69180
H         -0.28460        1.35520       -2.20390
H         -1.40440        2.57700       -1.68740
H          1.51860       -1.88730       -1.30840
H         -0.93660       -2.20330       -0.97480
H         -0.33370       -2.62940       -2.51310
H         -1.85430        0.01470       -2.11920
H         -2.48450       -1.46080       -2.77380
H         -1.69340        0.01590       -4.65480
H         -0.90160       -1.58540       -4.57150
H          0.38600        1.13920       -3.99280
H          0.84580       -0.04270       -5.09640
H          2.38550       -0.11620       -2.98600
H          1.60170       -1.60850       -3.53420
H          2.65890        0.09170        2.09940
H          3.02510       -1.36980        3.10490
H          2.32210        0.14140        3.85160
H          0.91880       -1.89300        4.69620
H         -1.37150       -2.74160        4.47670
H         -2.63690       -2.33500        2.40120
H         -1.66150       -1.15690        0.58170
H          3.81070        2.55510       -1.29890
H          3.24510        2.76600        1.67700
H          3.50950        4.14640        0.43000
H          5.61790        2.70810        1.36190
H          7.05200        2.34710        2.23140
H          4.55800        0.68320        2.50290
H          5.07050        1.94450        3.66290
H          7.15980        0.62110        4.11020
H          6.58570       -0.67760        2.99140
H          5.14030        0.25880        5.56590
H          6.13870       -1.23390        5.38860
H          4.61500       -1.08000        4.49120
H          8.98610       -1.65820       -1.84700
H         11.09810       -0.78170       -0.98650
H         11.12580        0.94560        0.78920
H          9.02920        1.84270        1.67760
H          6.41820       -1.36140       -2.74940
H          4.92110       -1.74830       -1.88070
H          6.14300       -3.59870       -0.64000
H          7.65540       -3.16290       -1.44750
H          6.65940       -3.56560       -3.70910
H          5.15950       -4.15580       -2.89210
H          8.02790       -5.28730       -2.59400
H          6.67380       -6.03930       -3.51470
H          6.57280       -5.90470       -1.71180
