31

P          0.97870        0.07460        0.06310
C         -0.18480        1.45640       -0.20250
C          0.68260       -0.71740       -1.55440
C          0.09260       -0.56480        1.52380
Pt         3.43870        0.07460        0.06310
Br         3.43870        0.98790       -2.36050
C          3.43870       -0.68360        2.07500
C          2.94190       -1.87080        2.41090
N          5.53870        0.07460        0.06310
C          6.24510        0.82210       -0.87200
C          7.63910        0.83850       -0.86780
F          8.30140        1.62890       -1.74910
C          8.33830        0.07000        0.04670
C          7.63890       -0.68780        0.97770
C          6.24200       -0.64600        0.99560
H         -1.22920        1.12440       -0.35270
H          0.15120        2.02420       -1.09880
H         -0.12220        2.15110        0.66260
H         -0.40990       -0.84970       -1.70050
H          1.16720       -1.71320       -1.58070
H          1.03710       -0.09780       -2.39440
H         -0.99960       -0.56940        1.29810
H          0.26270        0.07770        2.40870
H          0.36200       -1.61600        1.72430
H          3.86980       -0.05320        2.84650
H          2.50320       -2.52030        1.66410
H          2.96820       -2.18680        3.45020
H          5.76910        1.44110       -1.58440
H          9.42110        0.06650        0.03760
H          8.17120       -1.30900        1.67910
H          5.75100       -1.26910        1.72110
