89

P          1.00770        0.03470       -0.09350
C         -0.06510        0.00270        1.48800
C         -1.60020       -0.03290        1.41690
C          0.34470       -1.24590        2.31070
C          0.24310        1.30330        2.26900
C          0.44270        1.61000       -0.82450
C          1.11260        2.81870       -0.56760
C          0.56640        4.03780       -1.00540
C         -0.65280        4.06310       -1.69050
C         -1.32280        2.87340       -1.95200
C         -0.77970        1.66350       -1.52540
C          0.50010       -1.49250       -0.98530
C         -0.86580       -1.75060       -1.23650
C         -1.28350       -2.92040       -1.89270
C         -0.33630       -3.82720       -2.31800
C          1.01280       -3.58290       -2.08380
C          1.44270       -2.42320       -1.42030
Pt         3.46770        0.03470       -0.09350
Br         3.46770        0.18180       -2.67930
C          3.46770       -0.08740        2.05310
C          3.38320        0.88740        2.95960
P          5.92770        0.03470       -0.09350
C          6.98910       -0.01400        1.53200
C          6.67690       -1.31190        2.32630
C          8.52590        0.10810        1.46620
C          6.58340        1.18160        2.42110
C          6.46110       -1.49530       -1.18670
C          5.97690       -1.48210       -2.65390
C          8.00010       -1.62560       -1.25200
C          5.91900       -2.84530       -0.63900
C          6.31970        1.65890       -0.84220
C          5.88640        2.84630       -0.23820
C          6.16650        4.09520       -0.80590
C          6.88590        4.21520       -2.02350
N          7.09430        5.50080       -2.67850
C          6.68350        6.77540       -2.09840
C          7.64940        5.63080       -4.02410
C          7.35360        3.00500       -2.58990
C          7.07960        1.76790       -2.00940
H         -1.99790       -1.00270        1.08020
H         -2.00480        0.81780        0.83530
H         -2.00490        0.05860        2.45380
H          0.05830       -2.17420        1.77300
H         -0.14330       -1.25980        3.30850
H          1.41320       -1.32660        2.50380
H         -0.26510        2.17820        1.81500
H          1.28170        1.57880        2.21260
H         -0.05810        1.24150        3.33740
H          2.03630        2.82600       -0.00470
H          1.07070        4.97070       -0.79600
H         -1.08920        5.00130       -2.01080
H         -2.27630        2.88530       -2.46820
H         -1.35570        0.79020       -1.73240
H         -1.65000       -1.08750       -0.94190
H         -2.34290       -3.08320       -2.05810
H         -0.66650       -4.72900       -2.83010
H          1.75680       -4.30960       -2.41630
H          2.49530       -2.26480       -1.24600
H          3.54000       -1.09720        2.43290
H          3.33550        1.93020        2.66680
H          3.39360        0.63570        4.01710
H          7.18430       -2.18390        1.89320
H          5.60340       -1.53410        2.40560
H          7.06810       -1.27320        3.36610
H          9.06040       -0.74700        1.05360
H          8.92220        0.15930        2.51020
H          8.82620        1.03160        0.93990
H          5.54000        1.39040        2.33860
H          7.07360        2.12520        2.11800
H          6.81460        1.01390        3.49880
H          6.14150       -0.53580       -3.19030
H          4.93140       -1.81920       -2.71890
H          6.48230       -2.26930       -3.25410
H          8.51460       -0.68130       -1.50830
H          8.32090       -2.39100       -1.99110
H          8.38460       -2.03780       -0.31200
H          4.81160       -2.84000       -0.58840
H          6.29490       -3.13920        0.34290
H          6.22660       -3.68280       -1.30800
H          5.30980        2.82840        0.67230
H          5.77580        4.93700       -0.26580
H          6.28700        6.72660       -1.07620
H          5.89690        7.23330       -2.73680
H          7.55120        7.46820       -2.05940
H          7.94760        4.69520       -4.51290
H          8.54500        6.28790       -4.00460
H          6.88650        6.08730       -4.69080
H          7.93600        2.95700       -3.49040
H          7.47960        0.91010       -2.50590
