51

C          1.02400       -0.65300       -0.05500
N          0.81530        0.42400       -0.71560
C          1.76540        1.01790       -1.63870
C          2.17620        2.42070       -1.18390
C         -0.46660        1.00260       -0.37530
C         -1.14420       -0.07810        0.48220
N         -0.06550       -0.99060        0.76590
C         -0.14130       -2.13620        1.64870
C         -1.22540       -3.11600        1.20490
Pt         2.78020       -1.86970       -0.29550
Br         1.62120       -3.16270       -2.21720
C          3.74230       -0.79640        1.29980
C          3.24770        0.28790        1.90110
C          4.53640       -3.08650       -0.53600
N          5.84260       -2.72350       -0.43330
C          6.40310       -1.37490       -0.35880
C          6.57120       -3.85270       -0.64530
C          8.06330       -3.95190       -0.75390
C          5.70540       -4.91360       -0.78470
C          6.07850       -6.37110       -0.91500
N          4.44940       -4.43780       -0.75860
C          3.25190       -5.28920       -0.64560
H          1.29990        1.08750       -2.64460
H          2.68010        0.38910       -1.71760
H          1.29360        3.09280       -1.13230
H          2.89560        2.85430       -1.90990
H          2.65980        2.38110       -0.18600
H         -1.08240        1.25430       -1.26470
H         -0.27580        1.91380        0.23480
H         -1.89750       -0.63150       -0.12290
H         -1.61240        0.35520        1.38980
H         -0.37100       -1.77960        2.67580
H          0.83500       -2.66650        1.67050
H         -2.22150       -2.62500        1.19000
H         -1.27120       -3.96520        1.91930
H         -0.99510       -3.51060        0.19300
H          4.67620       -1.19290        1.68070
H          2.30470        0.73150        1.62140
H          3.79540        0.73990        2.72200
H          5.61350       -0.60120       -0.37520
H          7.01080       -1.19110       -1.27420
H          7.05290       -1.27060        0.53010
H          8.55720       -2.96490       -0.67040
H          8.31640       -4.37670       -1.75150
H          8.46060       -4.62760        0.03120
H          7.17480       -6.51230       -0.94040
H          5.63500       -6.78880       -1.84030
H          5.68910       -6.92790       -0.03420
H          3.52410       -6.33870       -0.41800
H          2.69530       -5.36790       -1.58640
H          2.63180       -4.95450        0.21700
