74

C          0.90100       -0.64300       -0.00200
N         -0.38320       -1.14950       -0.25990
C         -0.95110       -2.55900       -0.40930
C         -0.15350       -3.77420       -0.37550
C          1.28580       -3.87710       -0.39040
C         -0.70940       -5.05970       -0.30400
C         -2.05270       -5.25850       -0.26980
C         -2.58700       -6.65240       -0.05940
C         -2.87660       -4.17430       -0.42070
C         -2.38130       -2.84550       -0.50650
C         -3.49290       -1.85030       -0.66890
C         -1.14010       -0.02790       -0.20480
C         -0.39580        1.06980        0.10560
N          0.89120        0.73540        0.25910
C          1.91660        1.81540        0.38440
C          1.72160        3.06270        1.10550
C          0.56210        3.39530        2.01290
C          2.66570        4.11910        0.96790
C          3.78330        3.99580        0.13960
C          4.76480        5.09860       -0.11950
C          3.98620        2.81910       -0.52670
C          3.08560        1.77260       -0.42100
C          3.33730        0.67710       -1.31280
Pt         2.65840       -1.88140       -0.01350
Br         2.26780       -1.66710       -2.68660
C          2.67720       -1.91380        2.10230
C          1.66350       -1.45960        2.85030
N          4.37500       -3.09110       -0.02470
C          4.63850       -3.00560       -1.46320
C          5.41180       -2.50600        0.82550
C          4.40830       -4.53830        0.28750
C          5.43970       -5.37710       -0.31160
C          5.48200       -6.75560       -0.13660
C          4.55130       -7.37740        0.67180
C          3.59930       -6.61240        1.33240
C          3.53920       -5.20380        1.17980
H          1.59320       -3.38560       -1.24720
H          1.71540       -4.88090       -0.61320
H          1.61520       -3.50230        0.55960
H         -0.07310       -5.94620       -0.23250
H         -1.76700       -7.39470        0.09690
H         -3.20120       -6.97790       -0.91750
H         -3.19480       -6.65350        0.87050
H         -3.93650       -4.38020       -0.43330
H         -4.48720       -2.31960       -0.81710
H         -3.31750       -1.26740       -1.60190
H         -3.60960       -1.23680        0.24300
H         -2.17340        0.10220       -0.35200
H         -0.80270        2.07080        0.14990
H         -0.15350        2.57390        2.17500
H          0.02110        4.28140        1.60780
H          0.95450        3.67360        3.01540
H          2.51220        5.06110        1.48250
H          4.51730        6.02170        0.43600
H          4.75420        5.32850       -1.21100
H          5.78930        4.75910        0.14550
H          4.84020        2.73650       -1.19250
H          4.21630        0.77620       -1.97880
H          2.42880        0.70340       -1.94510
H          3.51140       -0.19020       -0.68100
H          3.49160       -2.39770        2.62230
H          0.76500       -1.03350        2.42840
H          1.68810       -1.57540        3.92810
H          3.86300       -3.57500       -2.02050
H          4.68190       -1.94080       -1.75180
H          5.61180       -3.35240       -1.83160
H          5.25940       -1.40950        0.90510
H          6.39620       -2.58310        0.29830
H          5.56600       -3.00050        1.80750
H          6.22430       -5.01350       -0.94350
H          6.24740       -7.33110       -0.65010
H          4.59210       -8.45400        0.77900
H          2.90280       -7.11370        1.99040
H          2.79150       -4.69180        1.73920
