41

C          1.02400       -0.65300       -0.05500
N          1.05270        0.61950       -0.07790
C          2.26770        1.40360       -0.20340
C          2.25720        2.25670       -1.47310
C         -0.28140        1.17730        0.05590
C         -1.20400       -0.06060        0.02300
N         -0.27490       -1.16050        0.07510
C         -0.61350       -2.55110        0.29840
C         -1.49810       -3.10460       -0.80730
Pt         2.78020       -1.86970       -0.29550
Br         3.05120       -1.62880        2.17200
C          2.25340       -1.69880       -2.37170
C          2.44710       -2.48870       -3.44730
N          4.49560       -3.05820       -0.53040
C          4.99140       -3.42070       -1.75420
C          6.08380       -4.27660       -1.90420
F          6.54520       -4.58400       -3.14240
C          6.69560       -4.80360       -0.78140
C          6.24350       -4.41400        0.47230
C          5.16830       -3.52050        0.57770
H          3.15760        0.73430       -0.24840
H          2.37540        2.06340        0.68280
H          2.16650        1.61170       -2.37350
H          3.20290        2.83660       -1.54250
H          1.41440        2.97700       -1.45640
H         -0.54200        1.86910       -0.77340
H         -0.34070        1.70170        1.03070
H         -1.76250       -0.12930       -0.93810
H         -1.90220       -0.05030        0.88500
H         -1.14940       -2.63280        1.26960
H          0.31250       -3.16310        0.36480
H         -2.44230       -2.52530       -0.87780
H         -1.75170       -4.16110       -0.57330
H         -0.96060       -3.06660       -1.77690
H          1.64550       -0.82950       -2.58990
H          2.91750       -3.45970       -3.45950
H          2.05850       -2.17230       -4.41190
H          4.63880       -2.99480       -2.64270
H          7.52530       -5.49180       -0.88290
H          6.71470       -4.81650        1.35870
H          4.85640       -3.29860        1.57330
