50

C          0.90100       -0.64300       -0.00200
N          0.71790        0.41290       -0.82210
C          1.58980        0.85360       -1.91030
C          2.04540        2.29580       -1.73270
C         -0.49280        0.92200       -0.51490
C         -1.03850        0.15770        0.49480
N         -0.16610       -0.82390        0.80160
C         -0.32190       -1.82860        1.84950
C         -0.44790       -1.14600        3.21430
Pt         2.65840       -1.88140       -0.01350
Br         3.76370       -0.32930        1.74070
C          1.74090       -3.16990       -1.46970
C          0.52580       -2.97370       -1.99030
N          4.37500       -3.09110       -0.02470
C          4.20940       -4.44350       -0.17710
C          5.28760       -5.32680       -0.13300
C          6.57510       -4.83820        0.02480
C          6.78200       -3.46290        0.09740
C          8.08690       -2.94800        0.13570
C          8.30930       -1.57180        0.08890
C          7.22980       -0.68020       -0.03910
C          7.40010        0.80680       -0.15320
O          6.40480        1.51300       -0.23450
C          8.72590        1.52090       -0.15590
C          5.92930       -1.21970       -0.07570
C          5.66370       -2.59060        0.06210
H          1.02160        0.77440       -2.86530
H          2.47890        0.19240       -1.98250
H          1.17190        2.97920       -1.67450
H          2.65990        2.59200       -2.61050
H          2.65820        2.39360       -0.81370
H         -0.95380        1.77320       -0.99660
H         -1.99870        0.31180        0.97080
H          0.56780       -2.49550        1.86850
H         -1.22680       -2.43970        1.65190
H          0.44650       -0.51580        3.41200
H         -0.53280       -1.90720        4.01850
H         -1.35110       -0.49900        3.24910
H          2.26290       -4.03340       -1.85290
H         -0.10970       -2.14830       -1.71240
H          0.14220       -3.67040       -2.72950
H          3.23040       -4.88300       -0.23340
H          5.11930       -6.39400       -0.21200
H          7.40950       -5.53000        0.03920
H          8.94120       -3.61460        0.16780
H          9.33260       -1.23350        0.10800
H          9.60240        0.85510       -0.10070
H          8.76650        2.21150        0.71330
H          8.81440        2.12090       -1.08620
H          5.12180       -0.54940       -0.28990
