82

P          1.27500        0.00000        0.00000
N          0.40120        1.54940       -0.22030
C          0.90610        2.58800        0.74030
C          2.42650        2.82340        0.56640
C          0.24440        3.97070        0.55950
C         -1.04830        1.44830       -0.37750
C         -1.49750        0.03980       -0.14140
C         -3.04140       -0.02320       -0.21050
C         -0.86080       -0.90620       -1.23230
N          0.63560       -0.82290       -1.43600
C          1.19050       -2.22500       -1.54730
C          0.58040       -3.03740       -2.70230
C          2.72120       -2.28580       -1.71270
N          0.42670       -0.58750        1.51090
C          0.45790       -2.08270        1.87320
C          1.78000       -2.86750        1.90380
C         -0.15220       -2.33060        3.28800
C         -1.04500       -0.30760        1.31620
Pt         3.73500        0.00030       -0.00050
Br         3.73440        1.03540       -2.37460
C          3.73550       -0.85890        1.97040
C          3.18300       -0.22500        3.00810
P          6.19500        0.00070       -0.00090
C          7.45180       -1.09000        0.78100
C          6.77930        0.24640       -1.70620
C          6.61460        1.45080       -2.41360
C          6.90420        1.50870       -3.78490
C          7.41740        0.39590       -4.44960
C          7.65400       -0.77990       -3.74630
C          7.33390       -0.85770       -2.38990
C          6.64100        1.13960        1.35160
C          6.33980        0.94820        2.71630
C          6.79920        1.85440        3.67800
C          7.57800        2.94950        3.29700
C          7.89500        3.14900        1.95310
C          7.42490        2.25080        0.99340
H          0.72250        2.25020        1.78590
H          2.65160        3.15840       -0.46830
H          3.02540        1.92610        0.79050
H          2.78760        3.60010        1.27420
H          0.39610        4.34320       -0.47470
H          0.69920        4.69880        1.26850
H         -0.83450        3.98080        0.79410
H         -1.33400        1.79690       -1.38860
H         -1.58440        2.08270        0.36110
H         -3.40550        0.29450       -1.20650
H         -3.49760        0.63990        0.56160
H         -3.39870       -1.05740       -0.01870
H         -1.32930       -0.68160       -2.21250
H         -1.19460       -1.92540       -0.93810
H          0.94310       -2.79740       -0.64670
H          0.82310       -2.59030       -3.68350
H         -0.51900       -3.15430       -2.61410
H          0.98670       -4.07820       -2.67010
H          3.04240       -1.80520       -2.65530
H          3.05340       -3.34800       -1.72090
H          3.25040       -1.83720       -0.86500
H         -0.16350       -2.64810        1.14540
H          2.35460       -2.66470        2.82570
H          2.38510       -2.77150        0.99190
H          1.56210       -3.95540        1.99830
H          0.44070       -1.80060        4.06250
H         -0.14990       -3.41740        3.53480
H         -1.20560       -2.01680        3.41020
H         -1.35780        0.47330        2.04060
H         -1.68450       -1.17060        1.58190
H          4.28520       -1.78280        2.12380
H          2.67510        0.72110        2.87580
H          3.24580       -0.66130        4.00090
H          7.33460       -2.09000        0.28930
H          7.20220       -1.33140        1.83760
H          8.48680       -0.75170        0.66000
H          6.18490        2.31620       -1.92870
H          6.71090        2.41960       -4.34270
H          7.62160        0.43580       -5.51230
H          8.05300       -1.64850       -4.25910
H          7.48930       -1.80380       -1.89610
H          5.78580        0.09590        3.05300
H          6.57090        1.68970        4.72470
H          7.94680        3.64050        4.04790
H          8.51140        3.98610        1.65960
H          7.71260        2.41540       -0.03660
