93

C          0.90100       -0.64300       -0.00200
N         -0.49730       -0.88780       -0.07090
C         -1.55130       -1.92780       -0.02650
C         -1.19870       -3.22550        0.54530
C         -1.10080        0.31850       -0.12230
C         -0.20600        1.28000       -0.09510
N          1.03420        0.75120       -0.02270
C          2.20200        1.64730       -0.15570
C          1.85470        3.03580       -0.79320
Pt         2.65840       -1.88140       -0.01350
Br         1.80870       -3.06750       -2.15340
C          3.36390       -0.89690        1.76290
C          2.51330       -0.17040        2.51260
C          4.41590       -3.11990       -0.02500
N          5.79880       -2.63160        0.10740
C          6.82860       -1.45230        0.19760
C          7.05710       -0.55840        1.36080
C          6.17560       -0.28630        2.48760
C          5.32120        0.90680        1.81530
C          5.96480       -1.67830        3.22800
C          8.14710        0.32470        1.48860
C          9.09150        0.44530        0.55870
C          8.96410       -0.27520       -0.58240
C          7.89630       -1.19760       -0.83180
C          8.09240       -1.67900       -2.29370
C          9.44310       -2.40080       -2.57920
C          6.93190       -2.40710       -2.91830
C          6.49110       -3.79180        0.17050
C          5.65340       -4.85170        0.10670
N          4.37140       -4.48820       -0.13360
C          3.29440       -5.45110       -0.30760
C          1.94070       -5.27040        0.25280
C          1.48850       -4.35490        1.45070
C          0.34890       -5.04230        2.33080
C          2.50250       -3.97240        2.52750
C          0.89140       -6.05080       -0.29160
C          1.09870       -7.03240       -1.21640
C          2.37290       -7.35070       -1.58310
C          3.50290       -6.62900       -1.14510
C          4.82100       -7.41060       -1.45780
C          6.17370       -6.89650       -2.05870
C          5.01190       -8.34720       -0.23630
H         -2.07980       -2.02760       -0.99230
H         -2.31760       -1.59270        0.72610
H         -0.53370       -3.72780       -0.16930
H         -2.11220       -3.84420        0.69730
H         -0.79720       -2.97880        1.55060
H         -2.16810        0.47900       -0.16560
H         -0.48130        2.31930       -0.14910
H          2.93870        1.18110       -0.83720
H          2.65190        1.84230        0.83530
H          1.36160        2.90660       -1.78580
H          2.75870        3.65610       -0.94530
H          1.17730        3.64490       -0.14960
H          4.19030       -1.16490        2.06080
H          1.47940       -0.02190        2.24350
H          2.78010        0.21440        3.48390
H          6.57650        0.31130        3.32910
H          4.87150        0.66320        0.81310
H          5.94880        1.77800        1.52060
H          4.55180        1.34710        2.47410
H          5.76120       -2.51790        2.52270
H          5.64560       -1.40950        4.24500
H          5.00100       -1.98240        3.68370
H          8.26530        0.98740        2.34380
H          9.90150        1.14920        0.72430
H          9.75320       -0.04910       -1.28790
H          8.15140       -0.73170       -2.89290
H          9.51430       -3.36540       -2.04510
H         10.33710       -1.79710       -2.31000
H          9.55610       -2.56880       -3.67360
H          6.80950       -3.41120       -2.48180
H          7.13290       -2.50230       -4.01020
H          6.01830       -1.78820       -2.80060
H          7.56220       -3.87810        0.28480
H          5.98500       -5.86610        0.24070
H          1.22080       -3.38830        1.00450
H          0.71310       -5.98670        2.78400
H         -0.60150       -5.31540        1.83740
H          0.00090       -4.38080        3.15610
H          2.80200       -4.84580        3.13900
H          2.00570       -3.23450        3.20900
H          3.38700       -3.47590        2.14510
H         -0.14350       -5.95530       -0.01860
H          0.25990       -7.61800       -1.58190
H          2.45980       -8.22990       -2.21170
H          4.55630       -8.13440       -2.25590
H          6.82540       -6.17400       -1.54730
H          6.05060       -6.50110       -3.08170
H          6.85740       -7.77440       -2.11190
H          5.42820       -7.85110        0.65810
H          5.64040       -9.21920       -0.50030
H          4.02760       -8.76800        0.08380
