54

C          0.90100       -0.64300       -0.00200
N         -0.38610       -1.10750       -0.04640
C         -0.91110       -2.48470       -0.01940
C         -1.76730       -2.70390        1.23080
C         -1.76070       -2.77490       -1.27980
C         -1.17430       -0.01950       -0.03310
C         -0.39730        1.09820        0.04300
N          0.89530        0.72390        0.08880
C          2.01060        1.68150        0.17750
C          2.03120        2.56690       -1.08700
C          1.90360        2.55890        1.42630
Pt         2.65840       -1.88140       -0.01350
Br         3.67390       -0.32910       -1.70040
C          1.78960       -3.10000       -1.49140
C          2.17630       -4.33170       -1.83760
N          4.37500       -3.09110       -0.02470
C          5.15680       -2.12500        0.79230
C          5.01090       -3.30150       -1.34850
C          4.37830       -4.30660        0.75430
C          3.29410       -4.67360        1.56400
C          3.44310       -5.69590        2.51710
C          4.67900       -6.33760        2.68530
C          5.76080       -5.99180        1.89000
C          5.61650       -4.99500        0.93000
H         -0.08680       -3.21570        0.04600
H         -2.64670       -2.02370        1.24480
H         -1.16410       -2.51890        2.14350
H         -2.14300       -3.75140        1.26780
H         -2.64110       -2.10110       -1.32070
H         -2.12740       -3.82560       -1.25040
H         -1.18620       -2.63530       -2.20890
H         -2.26050       -0.02780       -0.06370
H         -0.75300        2.11420        0.07040
H          2.96610        1.14320        0.27910
H          1.09990        3.16460       -1.17370
H          2.10680        1.94700       -2.00540
H          2.89760        3.26110       -1.06850
H          0.97420        3.16500        1.41180
H          2.77240        3.25310        1.47050
H          1.91370        1.92370        2.33500
H          0.95260       -2.68370       -2.02210
H          2.97930       -4.85260       -1.34870
H          1.65820       -4.86300       -2.62670
H          6.06480       -1.70410        0.32230
H          4.50330       -1.26330        1.04460
H          5.47730       -2.50270        1.79700
H          4.41070       -2.87400       -2.16580
H          5.18880       -4.36900       -1.59610
H          6.01880       -2.83090       -1.42900
H          2.35790       -4.13930        1.49570
H          2.61910       -5.95950        3.16320
H          4.80550       -7.09150        3.46010
H          6.72810       -6.45880        2.04200
H          6.49920       -4.69750        0.37840
