58

C          1.02400       -0.65300       -0.05500
N         -0.14900       -1.14430        0.07800
C         -0.44420       -2.55360       -0.01410
C         -1.07410       -3.08510        1.27290
C         -1.12870       -0.09040        0.27450
C         -0.28470        1.19610        0.37700
N          1.03930        0.74420        0.03200
C          2.20370        1.57940       -0.17080
C          2.57470        2.34610        1.09370
Pt         2.78020       -1.86970       -0.29550
Br         2.47680       -1.79950       -2.86670
C          3.03210       -1.92800        1.83890
C          2.28660       -1.24860        2.71400
P          4.78960       -3.26190       -0.57060
N          6.25210       -3.26790        0.45370
C          7.44130       -4.05650        0.14410
C          6.59860       -1.88030        0.82900
N          4.26300       -4.88460       -0.07290
C          3.73240       -4.97870        1.28640
C          3.29160       -5.39040       -1.04740
N          5.30720       -2.84440       -2.22330
C          5.70560       -1.44510       -2.39240
C          6.26110       -3.77690       -2.83550
H          0.48130       -3.14400       -0.20960
H         -1.14580       -2.72650       -0.86130
H         -0.37520       -2.93790        2.12250
H         -1.28200       -4.17050        1.15940
H         -2.02940       -2.56610        1.48040
H         -1.73350       -0.23820        1.19490
H         -1.78800       -0.06960       -0.62070
H         -0.25830        1.57810        1.42290
H         -0.66070        1.97350       -0.31790
H          1.99150        2.29990       -0.99170
H          3.07130        0.95470       -0.47260
H          1.73840        3.00000        1.41460
H          3.46180        2.98350        0.89100
H          2.82740        1.63590        1.90800
H          3.82040       -2.53830        2.24880
H          1.46960       -0.61000        2.41690
H          2.48990       -1.34280        3.77600
H          7.18160       -5.09780       -0.11310
H          8.08860       -4.07730        1.05200
H          8.07510       -3.56780       -0.61910
H          5.71620       -1.19610        0.79150
H          7.37910       -1.44860        0.16600
H          6.96810       -1.85040        1.87380
H          4.48100       -4.61910        2.02060
H          3.54800       -6.04560        1.53640
H          2.76230       -4.44820        1.37590
H          3.75140       -5.43240       -2.05750
H          2.38940       -4.74270       -1.08690
H          2.98970       -6.42830       -0.78920
H          4.97410       -0.76670       -1.90610
H          5.71250       -1.20100       -3.47790
H          6.71570       -1.25620       -1.98480
H          6.00080       -4.83100       -2.60660
H          7.29980       -3.56330       -2.53840
H          6.24020       -3.65190       -3.93770
