75

P          1.03820       -0.07190       -0.05800
C          0.17910        1.06460       -1.32590
C         -1.33670        1.11840       -1.56820
C          0.63230        2.54020       -1.18200
C          0.64890       -1.83280       -0.55480
C         -0.85600       -2.18500       -0.61090
C          1.28600       -2.24430       -1.87750
C          0.54270        0.55670        1.64720
C          0.94800        1.99530        1.98260
C         -0.96030        0.42790        1.94600
Pt         3.49820       -0.07190       -0.05800
Br         3.49820       -1.76250        1.90400
C          3.49820        1.33150       -1.68680
C          3.05790        1.08620       -2.92060
P          5.95820       -0.07190       -0.05800
C          6.87420       -1.61430        0.27350
C          7.07550       -2.44020       -0.85030
C          7.58990       -3.72660       -0.73280
C          7.90080       -4.22980        0.52620
C          7.68810       -3.43200        1.66050
C          7.17690       -2.13340        1.53810
C          6.63090        0.56060       -1.62370
C          7.81460        1.31410       -1.66490
C          8.35930        1.71760       -2.89020
C          7.72010        1.38670       -4.08680
C          6.54960        0.63030       -4.06070
C          6.02440        0.20090       -2.83730
C          6.12420        0.78190        1.55580
C          7.36620        1.12530        2.18500
C          8.73380        0.71010        1.70650
C          7.35280        1.93870        3.33500
C          6.15790        2.41670        3.86530
C          4.95220        2.08300        3.26370
C          4.93850        1.27960        2.12550
H          0.60180        0.70720       -2.28100
H         -1.89510        1.53960       -0.71980
H         -1.78160        0.18250       -1.90120
H         -1.52130        1.81320       -2.42120
H         -0.00750        3.10820       -0.48990
H          0.53450        3.06820       -2.15540
H          1.66970        2.66530       -0.83750
H          1.07560       -2.47470        0.24180
H         -1.36610       -1.73780       -1.47130
H         -1.40060       -1.93500        0.30930
H         -0.99040       -3.27730       -0.75130
H          0.90030       -1.62630       -2.71360
H          1.03280       -3.30850       -2.09280
H          2.38800       -2.16200       -1.81070
H          1.07470       -0.09360        2.36710
H          0.30410        2.74170        1.49280
H          2.00770        2.18620        1.75330
H          0.78350        2.17660        3.06810
H         -1.58200        1.05060        1.28480
H         -1.18970        0.76040        2.98310
H         -1.30580       -0.61820        1.90740
H          3.93470        2.30330       -1.47790
H          2.64200        0.12480       -3.18860
H          3.12430        1.86830       -3.67250
H          6.80620       -2.10870       -1.84350
H          7.71870       -4.33810       -1.62060
H          8.27330       -5.24420        0.61360
H          7.90920       -3.85050        2.63680
H          6.97260       -1.57950        2.44860
H          8.33460        1.58090       -0.76410
H          9.28160        2.28270       -2.91220
H          8.13860        1.70360       -5.03320
H          6.05560        0.36170       -4.98650
H          5.14130       -0.42130       -2.84170
H          8.72570        0.05330        0.82310
H          9.25490        0.16360        2.52190
H          9.33100        1.61390        1.45900
H          8.28130        2.22330        3.81660
H          6.16830        3.05780        4.73760
H          4.02350        2.46820        3.66520
H          3.98580        1.08820        1.67250
