31

C         -0.32800       -1.08200        0.00300
N          0.54630       -0.55120        0.87980
H          1.10030       -1.06660        1.59920
C          0.68680        0.73580        0.50990
Cl         1.84120        1.85980        1.20210
C         -0.20040        0.99740       -0.50900
Cl        -0.53880        2.55440       -1.24130
N         -0.80140       -0.15300       -0.85170
Pt        -0.94440       -3.14170        0.01670
Br        -1.64960       -2.91420        2.49840
C         -0.35900       -3.33050       -2.04350
C         -0.01700       -2.35780       -2.89330
C         -1.56080       -5.20140        0.03030
N         -0.89910       -6.25620       -0.50270
C          0.48800       -6.27200       -0.91900
C         -1.67760       -7.31790       -0.30160
Cl        -1.24580       -8.98740       -0.72570
C         -2.83310       -6.92210        0.29890
Cl        -4.22950       -7.94370        0.65150
N         -2.75590       -5.61090        0.53180
C         -3.87020       -4.72790        0.88540
H         -1.56120       -0.27900       -1.55810
H         -0.32950       -4.33170       -2.45160
H          0.02940       -1.32240       -2.64310
H          0.26010       -2.60300       -3.91120
H          0.97950       -5.27510       -0.80540
H          0.64150       -6.69190       -1.93050
H          1.05440       -6.92390       -0.18960
H         -4.83370       -5.29060        0.92210
H         -4.01940       -3.99240        0.04570
H         -3.76880       -4.19730        1.82430
