109

C          2.32700        0.03400        0.00000
N          1.49080        0.13130       -1.12080
C          1.64120       -0.01850       -2.60310
C          1.44760        1.30320       -3.33680
C          2.78000       -0.88300       -3.16840
C          0.22900        0.14030       -0.61150
C          0.27330        0.09360        0.72310
C         -0.88760        0.12550        1.52540
C         -2.13240        0.12830        0.87690
C         -2.19850        0.10280       -0.52750
C         -1.01970        0.13120       -1.28770
N          1.56760       -0.05550        1.13670
C          1.94740       -0.27960        2.52690
C          1.28670       -1.55350        3.01480
C          0.56710       -2.40610        2.13760
C         -0.20570       -3.44110        2.62440
C         -0.23330       -3.69570        3.98810
C          0.54860       -2.92860        4.86080
C          1.30580       -1.85410        4.37800
Pt         4.47690        0.05800        0.00140
Br         4.45480        2.12100       -1.56440
C          4.49520       -1.65440        1.30130
C          5.54390       -2.09510        1.99390
C          6.62670        0.08210        0.00280
N          7.19990        1.37880        0.03630
C          6.85840        2.82000        0.09180
C          5.73130        3.34520        0.84140
C          4.78690        2.49050        1.67900
C          5.19270        2.59460        3.14850
C          3.29390        2.88860        1.52440
C          5.51480        4.73600        0.89200
C          6.36760        5.63070        0.29120
C          7.49570        5.18390       -0.35560
C          7.78500        3.81660       -0.49170
C          9.13600        3.50740       -1.21490
C          9.15850        4.09850       -2.63370
C         10.36770        3.98060       -0.42820
C          8.46890        1.18780        0.39920
C          8.80510       -0.05630        0.45650
N          7.77200       -0.87980        0.26780
C          8.44280       -2.28730        0.42030
C          9.55120       -2.67150        1.41510
C         10.15820       -1.90060        2.62860
C          9.95070       -2.69560        3.93630
C         11.71320       -1.66050        2.50140
C         10.29460       -3.88260        1.26030
C         10.10120       -4.75330        0.25120
C          9.17950       -4.45010       -0.68300
C          8.39900       -3.24970       -0.65760
C          7.89760       -2.85890       -2.00520
C          9.19680       -2.42420       -2.75640
C          7.12030       -3.96580       -2.74580
H          0.78510       -0.66080       -2.91610
H          2.40610        1.83980       -3.43460
H          0.71730        1.93920       -2.79380
H          1.04270        1.10890       -4.35480
H          3.77280       -0.41540       -3.06410
H          2.59020       -1.02690       -4.26260
H          2.77690       -1.90340       -2.72720
H         -0.84660        0.11090        2.60120
H         -3.04520        0.11280        1.45710
H         -3.16340        0.06540       -1.02070
H         -1.11680        0.11270       -2.36370
H          1.54870        0.56990        3.12200
H          3.04210       -0.26010        2.67680
H          0.53430       -2.27240        1.06700
H         -0.80320       -4.02150        1.93040
H         -0.86040       -4.49170        4.35890
H          0.53780       -3.14610        5.91700
H          1.87100       -1.23850        5.06650
H          3.55630       -2.16200        1.48460
H          6.47600       -1.57740        2.00760
H          5.44580       -2.93080        2.67520
H          4.92750        1.44040        1.42940
H          5.05760        3.63180        3.52070
H          6.26250        2.31160        3.25860
H          4.58310        1.90210        3.76680
H          3.07230        3.87170        1.98360
H          2.64630        2.18210        2.05420
H          2.95640        2.93340        0.47410
H          4.67740        5.16220        1.42130
H          6.16560        6.69090        0.35910
H          8.15870        5.93790       -0.75670
H          9.24410        2.42630       -1.42300
H          9.10310        5.20510       -2.61580
H          8.31640        3.69020       -3.22700
H         10.11480        3.81790       -3.12500
H         10.43260        5.08490       -0.36940
H         11.29500        3.59930       -0.91190
H         10.39670        3.61370        0.61910
H          9.18340        1.92700        0.67010
H          9.83440       -0.30800        0.67080
H          9.65920       -0.92770        2.75110
H         10.49820       -3.66700        3.93640
H          8.87660       -2.91000        4.08480
H         10.34040       -2.12130        4.80280
H         12.32680       -2.58900        2.60070
H         12.08920       -1.01910        3.32750
H         12.00370       -1.20020        1.53540
H         11.11710       -4.17550        1.90040
H         10.74050       -5.62940        0.14210
H          9.20850       -5.14190       -1.50780
H          7.22230       -1.98740       -1.93960
H         10.01960       -3.17950       -2.68580
H          9.61640       -1.51400       -2.26650
H          9.04240       -2.23380       -3.83010
H          7.76300       -4.81920       -3.05360
H          7.73970       -4.85390       -2.99330
H          6.28510       -4.31780       -2.10440
