57

C          2.32700        0.03400        0.00000
N          1.51490        1.11630        0.20790
C          1.88570        2.49180        0.59160
C          2.94050        3.17820       -0.28290
C          2.50780        3.49350       -1.71740
C          3.64140        4.22030       -2.44710
C          0.26060        0.62540        0.08250
C          0.31530       -0.72600       -0.14140
C         -0.84190       -1.50380       -0.26220
C         -2.08420       -0.85180       -0.15890
C         -2.15100        0.53890        0.05700
C         -0.97120        1.29540        0.18530
N          1.60770       -1.11310       -0.19270
C          2.10390       -2.48530       -0.42190
C          2.84440       -3.11290        0.77930
C          1.96070       -3.25030        2.03440
C          2.68450       -3.98240        3.16980
Pt         4.47690        0.05800        0.00140
Br         4.28790       -0.12530        2.48240
C          4.34220        0.21060       -2.13320
C          3.22200        0.24840       -2.85200
N          6.57670        0.08150        0.00280
C          7.30360        0.45850       -1.10200
C          8.69810        0.45470       -1.11410
Cl         9.56860        1.02710       -2.52870
C          9.38680        0.00970        0.00150
C          8.67090       -0.37270        1.12880
C          7.27070       -0.29580        1.12530
H          2.30930        2.44670        1.61470
H          0.98840        3.14420        0.64610
H          3.86490        2.56450       -0.28180
H          3.17200        4.15090        0.20810
H          1.60300        4.13890       -1.72000
H          2.26410        2.56440       -2.25680
H          3.86160        5.18950       -1.94790
H          3.35650        4.42300       -3.50000
H          4.56530        3.60140       -2.44280
H         -0.81680       -2.57130       -0.41130
H         -2.99900       -1.42800       -0.24180
H         -3.10960        1.02360        0.12690
H         -1.03720        2.36050        0.35860
H          2.76890       -2.48560       -1.31000
H          1.26190       -3.16660       -0.65550
H          3.76270       -2.53830        1.00930
H          3.15530       -4.13690        0.47120
H          1.04680       -3.83150        1.78290
H          1.65710       -2.24430        2.39300
H          2.98430       -5.00600        2.85420
H          2.00550       -4.08100        4.04530
H          3.58930       -3.42430        3.49030
H          5.20520        0.23550       -2.76730
H          2.23300        0.22670       -2.43690
H          3.29090        0.32310       -3.93630
H          6.86200        0.85940       -1.97530
H         10.46860       -0.02750       -0.00450
H          9.19930       -0.73360        2.00120
H          6.77270       -0.63100        2.01180
