27

C         -0.32800       -1.08200        0.00300
N         -1.07020       -0.04740       -0.44610
H         -2.01140       -0.10160       -0.90480
C         -0.28230        1.03410       -0.31410
Cl        -0.69760        2.64790       -0.85490
C          0.89050        0.64800        0.29790
Cl         2.19110        1.69680        0.84140
N          0.88780       -0.69220        0.41840
Pt        -0.94440       -3.14170        0.01670
Br         0.98040       -3.72850       -1.61400
C         -2.54220       -2.65460        1.37020
C         -2.80420       -1.43090        1.84150
N         -1.54650       -5.15350        0.03000
C         -0.64230       -6.13620       -0.29010
C         -0.99580       -7.48660       -0.30960
C         -2.30520       -7.85490       -0.03710
C         -3.23620       -6.87200        0.26370
C         -2.83720       -5.53270        0.31110
H          1.61320       -1.28570        0.88170
H         -3.19440       -3.40070        1.78070
H         -2.24280       -0.55430        1.58100
H         -3.62390       -1.28900        2.53890
H          0.38750       -5.91780       -0.48280
H         -0.25430       -8.24300       -0.53730
H         -2.59920       -8.89490       -0.07000
H         -4.26890       -7.13940        0.44790
H         -3.62470       -4.83130        0.47850
