77

C          1.02400       -0.65300       -0.05500
N          1.06870        0.67530       -0.02460
C          2.20990        1.63230       -0.01310
C          3.49140        1.39510       -0.64130
C          3.78450        0.28090       -1.59730
C          4.58390        2.28110       -0.44330
C          4.45760        3.44120        0.30980
C          5.60820        4.37290        0.59430
C          3.21950        3.76930        0.80640
C          2.10170        2.93150        0.65900
C          0.86130        3.53920        1.28400
C         -0.28170        1.15110        0.13260
C         -1.15350       -0.02370       -0.15500
N         -0.31630       -1.14780        0.10700
C         -0.81260       -2.49310        0.33120
C         -2.08600       -2.92860       -0.20530
C         -3.14170       -2.12570       -0.95230
C         -2.47730       -4.26440       -0.06660
C         -1.71550       -5.18860        0.62260
C         -2.16610       -6.61830        0.69990
C         -0.54720       -4.77290        1.24720
C         -0.08570       -3.44690        1.13010
C          1.14290       -3.11210        1.94200
Pt         2.78020       -1.86970       -0.29550
Br         3.88180       -0.81480        1.71020
C          1.75850       -2.72270       -1.93900
C          2.38380       -3.22230       -3.03310
N          4.49560       -3.05820       -0.53040
C          4.60690       -4.28420       -0.99720
C          3.53270       -5.25790       -1.42950
C          3.84320       -6.23550       -2.40270
C          2.86300       -7.09670       -2.90510
C          1.55220       -7.00800       -2.44690
C          1.23180       -6.08590       -1.45450
C          2.21800       -5.23710       -0.93060
N          5.94330       -4.72910       -1.00220
C          6.79050       -3.64590       -0.65270
C          5.80640       -2.63770       -0.05470
H          2.89820       -0.31100       -1.85760
H          4.59860       -0.34780       -1.21200
H          4.14680        0.72700       -2.55270
H          5.54980        2.06810       -0.89090
H          6.55930        4.02270        0.14660
H          5.75030        4.43850        1.69730
H          5.38410        5.39520        0.21990
H          3.14010        4.70940        1.34380
H          1.02330        4.55830        1.69600
H          0.51870        2.94680        2.14810
H          0.08410        3.70450        0.51150
H         -0.54650        1.96050       -0.58390
H         -0.44830        1.40180        1.19070
H         -1.33600       -0.01050       -1.25230
H         -2.05180        0.04130        0.50050
H         -3.09900       -1.04510       -1.04250
H         -4.11130       -2.26400       -0.42470
H         -3.23000       -2.51070       -1.98550
H         -3.41170       -4.59170       -0.50870
H         -3.10780       -6.77670        0.12960
H         -2.33780       -6.91380        1.75360
H         -1.39010       -7.27340        0.25140
H          0.00990       -5.50160        1.82660
H          1.53430       -3.99160        2.50210
H          0.90710       -2.32950        2.69270
H          1.96490       -2.78940        1.31990
H          0.67400       -2.63060       -2.01800
H          3.46640       -3.26370       -3.10410
H          1.82520       -3.58690       -3.89510
H          4.83430       -6.31810       -2.82080
H          3.11770       -7.81770       -3.67070
H          0.78640       -7.65300       -2.86050
H          0.21160       -6.02230       -1.11040
H          1.94660       -4.53210       -0.17240
H          6.28220       -5.63860       -1.34510
H          7.22810       -3.28600       -1.61130
H          7.59060       -3.92180        0.06440
H          6.11180       -1.62950       -0.39300
H          5.81550       -2.70340        1.05160
