53

C          1.02400       -0.65300       -0.05500
N          0.99940        0.59250       -0.32990
C          2.15010        1.35330       -0.75820
C         -0.30290        1.16280       -0.08390
C         -1.17840       -0.05560        0.25950
N         -0.22610       -1.13320        0.39120
C         -0.53250       -2.46630        0.81710
C         -1.85220       -2.81720        1.17710
C         -2.15520       -4.10490        1.62040
C         -1.15110       -5.06820        1.72100
C          0.15830       -4.74380        1.37040
C          0.46610       -3.45550        0.92420
Pt         2.78020       -1.86970       -0.29550
Br         2.11650       -2.34180       -2.75410
C          3.33110       -1.47790        1.74550
C          2.52270       -0.87330        2.62230
N          4.49560       -3.05820       -0.53040
C          5.09400       -3.58940        0.59930
C          6.17050       -4.48710        0.55890
C          6.65440       -4.93800       -0.64620
C          6.12180       -4.44070       -1.81720
C          6.61060       -4.91070       -3.05240
C          6.07800       -4.43560       -4.25600
C          5.19250       -3.35880       -4.23750
C          4.49760       -2.82150       -5.46730
O          3.74150       -1.86810       -5.35840
C          4.50310       -3.50700       -6.81010
C          4.85310       -2.81250       -2.98520
C          5.10380       -3.43960       -1.75320
H          3.04960        0.70590       -0.85120
H          2.36420        2.14490       -0.00840
H          1.94230        1.82910       -1.73860
H         -0.70290        1.71000       -0.96500
H         -0.21510        1.84530        0.79040
H         -1.85840       -0.31010       -0.58320
H         -1.75590        0.12950        1.19000
H         -2.65570       -2.09420        1.11520
H         -3.17190       -4.35960        1.89300
H         -1.38540       -6.06500        2.07210
H          0.93940       -5.48910        1.44980
H          1.48790       -3.25320        0.67080
H          4.33260       -1.60480        2.12310
H          1.51160       -0.58020        2.39080
H          2.89540       -0.62650        3.61240
H          4.72720       -3.45210        1.58270
H          6.57770       -4.88460        1.47750
H          7.46260       -5.66230       -0.66410
H          7.35740       -5.69130       -3.09750
H          6.40500       -4.88280       -5.18260
H          5.19550       -4.36070       -6.88670
H          4.73620       -2.77370       -7.60810
H          3.47660       -3.90580       -7.01480
H          4.37140       -1.87040       -2.98570
