78

C          1.02400       -0.65300       -0.05500
N          0.97580        0.66410       -0.35820
C          1.91470        1.72230       -0.71790
C          1.50080        2.89050       -1.51400
C          0.21270        3.06760       -2.32310
C          2.30190        4.02920       -1.55360
C          3.50350        4.09180       -0.87170
C          4.28770        5.35780       -0.77380
C          3.94390        2.96590       -0.17380
C          3.17800        1.81240       -0.10430
C          3.66420        0.73470        0.78150
C         -0.26870        1.19850        0.09560
C         -1.19890        0.08280        0.09800
N         -0.37280       -1.08330        0.22400
C         -1.05420       -2.33820        0.56490
C         -0.36970       -3.57630        0.52150
C          0.92000       -3.70110       -0.16190
C         -0.91110       -4.73530        1.06560
C         -2.17690       -4.73110        1.62220
C         -2.70480       -5.92020        2.35020
C         -2.97110       -3.60900        1.48880
C         -2.47610       -2.41520        0.94690
C         -3.57490       -1.35010        0.81810
Pt         2.78020       -1.86970       -0.29550
Br         2.87720       -1.94530        2.24590
C          2.47740       -1.74370       -2.37020
C          1.35700       -1.45200       -3.03950
C          4.53640       -3.08650       -0.53600
N          5.37730       -3.12240       -1.67310
C          5.59710       -2.39670       -2.95520
C          6.36120       -3.98850       -1.39880
C          6.22030       -4.45220       -0.16830
N          5.13260       -3.91620        0.42730
C          4.87410       -4.47740        1.75100
C          5.97450       -4.81350        2.59390
C          5.79910       -5.53150        3.77350
C          4.52410       -5.92410        4.15940
C          3.42410       -5.58870        3.36570
C          3.59980       -4.88330        2.16750
H         -0.42220        2.16710       -2.42320
H          0.45420        3.38210       -3.36240
H         -0.38500        3.89580       -1.87300
H          1.96960        4.91050       -2.08990
H          3.81480        6.17790       -1.35240
H          5.32740        5.20260       -1.12800
H          4.31150        5.67160        0.29560
H          4.88800        3.02940        0.37110
H          4.63090        0.96760        1.27360
H          3.82790       -0.14990        0.16030
H          2.89840        0.61150        1.57220
H         -0.73590        2.08980       -0.34810
H         -0.07480        1.52590        1.14800
H         -1.75300        0.02570       -0.86540
H         -1.80390        0.31250        0.97460
H          0.82760       -3.18770       -1.13070
H          1.21400       -4.74320       -0.38760
H          1.63150       -3.27820        0.50180
H         -0.32230       -5.64320        1.08070
H         -1.93470       -6.71470        2.43060
H         -3.61070       -6.30990        1.85000
H         -2.96140       -5.59310        3.38350
H         -3.99150       -3.66730        1.85190
H         -4.59180       -1.74930        1.01880
H         -3.64850       -1.00110       -0.23750
H         -3.51660       -0.51700        1.53750
H          3.21410       -2.07480       -2.99190
H          0.42290       -1.19760       -2.56600
H          1.36870       -1.55570       -4.12730
H          4.88920       -2.50650       -3.78180
H          6.47150       -2.81720       -3.50740
H          5.89210       -1.34790       -2.74070
H          7.18620       -4.25960       -2.04850
H          6.90250       -5.18130        0.24960
H          6.99100       -4.55030        2.32790
H          6.66210       -5.80300        4.37180
H          4.39320       -6.50250        5.06400
H          2.43500       -5.90850        3.66210
H          2.74420       -4.71030        1.55600
