64

P          0.91320        0.04610        0.01810
C         -0.08060       -1.61710       -0.46930
C         -1.63450       -1.74340       -0.42300
C          0.25050       -2.02040       -1.93190
C          0.37900       -2.81330        0.41300
C          0.53750        0.26070        1.96630
C          1.23250       -0.79270        2.86140
C          1.00380        1.60730        2.58070
C         -0.97230        0.25620        2.33930
C          0.15870        1.35010       -1.23850
C         -1.38890        1.45850       -1.11640
C          0.69570        2.75770       -0.93930
C          0.44230        1.14780       -2.74950
Pt         3.37320        0.04610        0.01810
Br         3.37320        2.49170        0.87090
C          3.37320       -1.98400       -0.68980
C          3.34760       -2.70510       -1.81600
N          5.47320        0.04610        0.01810
C          6.18930       -0.48540       -1.03210
C          5.58190       -0.89880       -2.33030
C          7.59300       -0.47590       -1.06190
C          8.29960        0.10970       -0.02650
C          7.60910        0.63800        1.03810
C          6.19920        0.61890        1.06270
C          5.59650        0.97380        2.40710
H         -2.17960       -1.18580       -1.18070
H         -2.11020       -1.58450        0.53990
H         -1.92280       -2.78960       -0.68300
H         -0.43520       -1.56640       -2.65680
H          0.09320       -3.10400       -2.12880
H          1.24600       -1.72240       -2.23700
H         -0.13070       -2.81290        1.38590
H          1.45280       -2.91030        0.56000
H          0.05120       -3.79100       -0.00640
H          2.32470       -0.80480        2.67600
H          0.84560       -1.80460        2.79490
H          1.06910       -0.54840        3.93750
H          2.08110        1.61830        2.77320
H          0.63130        1.74340        3.62150
H          0.62490        2.49710        2.05710
H         -1.45390       -0.70320        2.18290
H         -1.53650        1.09390        1.90090
H         -1.11710        0.40080        3.43370
H         -1.75270        1.45690       -0.08790
H         -1.90980        0.69420       -1.69600
H         -1.78700        2.38570       -1.57970
H          0.50370        3.07440        0.08650
H          0.18800        3.52110       -1.57410
H          1.76690        2.82380       -1.20150
H         -0.08720        0.31170       -3.20800
H          1.52190        1.08370       -2.97390
H          0.01550        2.00470       -3.32460
H          3.50580       -2.60520        0.18930
H          3.27820       -2.30760       -2.81750
H          3.41160       -3.79600       -1.71900
H          4.52870       -0.55460       -2.37660
H          5.74070       -1.98270       -2.51950
H          6.05320       -0.34320       -3.15500
H          8.15760       -0.84580       -1.91470
H          9.38580        0.14190       -0.04380
H          8.17700        1.04790        1.86130
H          6.38220        1.03460        3.18730
H          4.92840        0.15050        2.73680
H          5.14270        1.96130        2.50460
