48

C          1.02400       -0.65300       -0.05500
N          1.05580        0.62020       -0.14330
C          2.25960        1.39300       -0.34620
C         -0.25270        1.20480        0.04900
C         -1.18750       -0.01380        0.13610
N         -0.28290       -1.14210        0.19000
C         -0.67850       -2.50300        0.39850
C         -2.04060       -2.82950        0.58270
C         -2.43390       -4.14880        0.81660
C         -1.47780       -5.16460        0.87630
C         -0.12920       -4.85980        0.69540
C          0.26880       -3.54060        0.46170
Pt         2.78020       -1.86970       -0.29550
Br         2.37650       -1.94700       -2.85270
C          3.11530       -1.80560        1.82730
C          2.33910       -1.15360        2.69740
N          4.49560       -3.05820       -0.53040
C          5.60450       -2.77220        0.24310
C          5.77750       -1.41830        0.89170
C          6.75830       -3.56090        0.19330
C          6.79580       -4.66920       -0.62610
C          5.70180       -4.96020       -1.42180
C          4.56250       -4.12840       -1.41080
C          3.32440       -4.74430       -2.02540
H          3.14940        0.73520       -0.44860
H          2.41590        2.06390        0.52620
H          2.15870        2.00970       -1.26300
H         -0.54190        1.87340       -0.78640
H         -0.23710        1.76200        1.01070
H         -1.80020       -0.11630       -0.78620
H         -1.83370        0.06000        1.03580
H         -2.80680       -2.06730        0.54750
H         -3.48150       -4.38510        0.95770
H         -1.78450       -6.18390        1.06240
H          0.61050       -5.65080        0.74400
H          1.31790       -3.34630        0.33830
H          3.93110       -2.36840        2.25740
H          1.47670       -0.57790        2.40010
H          2.57090       -1.19680        3.75700
H          4.94230       -0.73100        0.64870
H          6.64880       -0.91550        0.41440
H          5.97770       -1.48070        1.97870
H          7.64270       -3.28780        0.75840
H          7.67570       -5.29920       -0.65020
H          5.73020       -5.86740       -2.01470
H          3.45980       -5.83850       -2.17900
H          3.07410       -4.37980       -3.02810
H          2.48210       -4.68670       -1.29980
