45

N         -0.65900       -1.22800       -0.05100
C          0.70100       -1.08420       -0.00870
F          1.50970       -2.17190       -0.06320
C          1.27470        0.17010        0.22040
C          0.45040        1.28360        0.37090
C         -0.93270        1.12550        0.33340
C         -1.46950       -0.15130        0.15770
Pt        -1.57560       -3.10440       -0.27260
Br        -3.14200       -2.57460        1.72090
C         -0.27540       -3.54410       -1.92740
C          0.58680       -2.74440       -2.56570
P         -2.64940       -5.30240       -0.53210
C         -4.05190       -6.23490        0.18650
C         -3.52830       -5.09970       -2.10480
C         -3.22520       -5.95340       -3.18300
C         -3.97720       -5.91390       -4.35650
C         -5.04420       -5.01890       -4.47340
C         -5.34350       -4.15340       -3.40890
C         -4.58880       -4.19030       -2.23000
C         -1.35400       -6.59380       -0.69700
C          0.01240       -6.30560       -0.52440
C          0.98340       -7.30490       -0.67800
C          0.60280       -8.61850       -0.95940
C         -0.74630       -8.93370       -1.08510
C         -1.71330       -7.93440       -0.96190
H          2.34930        0.27510        0.29690
H          0.88100        2.26280        0.53440
H         -1.58510        1.98180        0.44610
H         -2.54300       -0.27290        0.12490
H         -0.36350       -4.53730       -2.34810
H          0.74280       -1.70790       -2.32980
H          1.15250       -3.13450       -3.40540
H         -4.92400       -5.55160        0.27010
H         -3.77380       -6.52260        1.22370
H         -4.37590       -7.12280       -0.37880
H         -2.43440       -6.68300       -3.12170
H         -3.74760       -6.59570       -5.16660
H         -5.62620       -4.99770       -5.38110
H         -6.16490       -3.46230       -3.50840
H         -4.85570       -3.53880       -1.40930
H          0.34680       -5.31300       -0.27830
H          2.03180       -7.06170       -0.57450
H          1.35120       -9.39090       -1.07150
H         -1.05010       -9.95350       -1.28220
H         -2.73930       -8.23810       -1.08180
