40

N         -1.43520       -0.06040       -0.16730
C         -0.75900        0.44430       -1.24200
C          0.64530        0.46490       -1.26370
Cl         1.52890        0.98350       -2.69380
C          1.35070        0.03620       -0.14360
C          0.65210       -0.39770        0.98250
C         -0.75280       -0.46250        0.94880
Pt        -3.47120       -0.20920       -0.26760
Br        -3.66470        2.18350        0.70690
C         -3.31280       -2.18250       -1.07110
C         -2.13320       -2.74580       -1.28890
P         -5.88380       -0.33480       -0.51320
C         -6.71340        1.25970       -0.71030
C         -6.25020       -1.15810       -2.10890
C         -6.75100       -1.11790        0.95720
C         -6.41970       -0.24120        2.16950
C         -8.27830       -1.24930        0.82890
C         -6.27570       -2.54460        1.17460
H         -1.30160        0.80020       -2.10500
H          2.43620        0.03970       -0.14880
H          1.20300       -0.69820        1.86330
H         -1.28880       -0.83130        1.81180
H         -4.07730       -2.89350       -1.20000
H         -1.20310       -2.22880       -1.12450
H         -2.04980       -3.78930       -1.57860
H         -6.22820        1.77710       -1.58080
H         -6.44510        1.89540        0.16100
H         -7.79650        1.23320       -0.86610
H         -5.85580       -0.65060       -3.00560
H         -7.35850       -1.23280       -2.21670
H         -5.88710       -2.19970       -2.05700
H         -6.72520        0.81530        1.98320
H         -5.33010       -0.23460        2.37010
H         -6.95620       -0.59080        3.07170
H         -8.69700       -0.37870        1.33050
H         -8.76470       -1.90490        1.57120
H         -8.58620       -1.56580       -0.20060
H         -5.19190       -2.56750        1.37710
H         -6.52570       -3.18220        0.30060
H         -6.80670       -2.96110        2.06080
