52

N         -1.40820       -0.27160       -0.16690
C         -0.67570       -0.72670       -1.23340
C          0.71640       -0.87180       -1.15110
F          1.40370       -1.41090       -2.18550
C          1.38510       -0.51320        0.01270
C          0.66130        0.05010        1.05580
C         -0.73600        0.18050        0.94160
Pt        -3.46240       -0.10390       -0.31940
Br        -3.29870        2.17040       -1.29260
C         -3.53860       -2.11980        0.55490
C         -2.56200       -2.96640        0.94160
P         -5.95860        0.07410       -0.57750
O         -7.49880        0.91640       -0.86190
C         -7.45380        2.07640       -1.74740
C         -7.26320        1.57820       -3.13720
C         -8.81710        2.87860       -1.85450
O         -6.10380       -1.01640       -1.96930
C         -5.69590       -2.36350       -1.66990
C         -6.54090       -3.06600       -0.59470
C         -5.82720       -3.29200       -2.88010
O         -6.62900       -0.72680        0.74720
C         -6.10310       -0.50650        2.00420
C         -6.64460        0.82120        2.40740
C         -6.54900       -1.62310        2.99490
H         -1.14420       -1.01740       -2.15310
H          2.45550       -0.67080        0.10040
H          1.18220        0.36110        1.95850
H         -1.24760        0.64010        1.76930
H         -4.50230       -2.56490        0.68930
H         -1.51870       -2.72600        0.87490
H         -2.82220       -3.96490        1.33340
H         -6.65120        2.79760       -1.52080
H         -8.16200        0.95690       -3.17680
H         -6.31110        1.03850       -3.25880
H         -7.32260        2.33860       -3.95150
H         -9.70450        2.21380       -2.00930
H         -8.80920        3.51510       -2.78200
H         -9.00830        3.59030       -1.03150
H         -4.62910       -2.35940       -1.43530
H         -7.58480       -3.17120       -0.87810
H         -6.55160       -2.67750        0.35860
H         -6.10030       -3.99610       -0.23740
H         -6.88380       -3.33490       -3.21690
H         -5.52440       -4.33300       -2.59990
H         -5.19220       -2.96050       -3.71760
H         -5.01100       -0.57950        2.05880
H         -7.76080        0.82250        2.34440
H         -6.21160        1.57860        1.72890
H         -6.29470        1.01650        3.41550
H         -7.65420       -1.73860        3.09280
H         -6.14950       -1.35350        3.99740
H         -6.10450       -2.62790        2.76850
