29

N         -1.41290       -0.16870       -0.07870
C         -0.70490        0.84770       -0.66490
C          0.69610        0.85140       -0.67930
C          1.38730       -0.15730       -0.01630
Cl         3.14580       -0.14530        0.02500
C          0.66930       -1.18530        0.59360
C         -0.73120       -1.20890        0.49730
Pt        -3.47560       -0.20170       -0.28210
Br        -3.27830       -2.64210       -1.12690
C         -3.63950        1.82400        0.41930
C         -2.66670        2.65400        0.81500
N         -5.54180       -0.33690       -0.46060
C         -6.16880       -1.56240       -0.42660
C         -7.54270       -1.69900       -0.66240
C         -8.29850       -0.58190       -0.98600
Cl       -10.00070       -0.74550       -1.38660
C         -7.68230        0.66300       -1.01550
C         -6.31410        0.76980       -0.71650
H         -1.22280        1.61490       -1.22970
H          1.24320        1.62400       -1.20770
H          1.20020       -1.96440        1.12670
H         -1.27650       -2.01010        0.97080
H         -4.60770        2.26760        0.54610
H         -1.62350        2.41660        0.84860
H         -2.92930        3.64700        1.16710
H         -5.63880       -2.45530       -0.18080
H         -8.00740       -2.67730       -0.61820
H         -8.25060        1.53810       -1.30900
H         -5.90430        1.74880       -0.86380
