72

N         -1.41460       -0.42800       -0.06100
C         -0.85790       -1.67170       -0.05660
C          0.47030       -1.91020        0.27620
C          1.32460       -0.84960        0.60370
N          2.67240       -1.08090        1.09300
C          3.23380       -2.41780        1.28420
C          3.54390       -0.00260        1.54170
C          0.78120        0.44670        0.43950
C         -0.56680        0.63250        0.11110
Pt        -3.47290       -0.24220       -0.30190
Br        -2.96610        2.06050       -1.33910
C         -3.82310       -2.13930        0.60260
C         -3.16340       -2.81670        1.53190
P         -5.94400       -0.07830       -0.58810
C         -6.84520        1.55710       -0.77670
C         -6.33120        2.32800       -2.03940
C         -8.37070        1.51480       -0.92750
C         -6.51890        2.36630        0.54900
C         -6.27080       -1.26480       -2.09720
C         -5.84570       -2.75240       -1.95980
C         -7.77870       -1.32840       -2.43320
C         -5.49960       -0.78880       -3.34010
C         -6.63720       -1.08960        0.86440
C         -6.42780       -0.79660        2.22970
C         -6.93510       -1.57050        3.27080
C         -7.69700       -2.72250        3.02650
N         -8.16640       -3.57450        4.10360
C         -7.88540       -3.30970        5.51270
C         -8.89420       -4.81660        3.87050
C         -7.93390       -3.02060        1.67230
C         -7.41410       -2.23480        0.65660
H         -1.42030       -2.53080       -0.35410
H          0.76710       -2.94560        0.28150
H          2.57000       -3.25630        1.03290
H          3.48550       -2.56390        2.35610
H          4.16010       -2.53040        0.68240
H          3.13340        1.00790        1.43280
H          4.48610       -0.02330        0.96130
H          3.77210       -0.13960        2.62210
H          1.33330        1.35170        0.60160
H         -0.90400        1.64560        0.09740
H         -4.73080       -2.65790        0.40950
H         -2.30320       -2.45530        2.05510
H         -3.54400       -3.77870        1.88040
H         -6.89060        2.04060       -2.94950
H         -5.29900        2.13560       -2.37040
H         -6.46990        3.42320       -1.92230
H         -8.68610        1.18350       -1.91790
H         -8.76080        2.55000       -0.85420
H         -8.87490        0.88020       -0.18880
H         -5.47850        2.34160        0.91650
H         -6.99220        2.01000        1.46980
H         -6.83500        3.42280        0.46800
H         -6.50370       -3.37900       -1.37500
H         -4.78280       -2.86160       -1.71300
H         -5.98140       -3.29030       -2.92160
H         -8.39080       -1.60260       -1.56720
H         -7.99100       -2.06700       -3.23370
H         -8.14850       -0.39390       -2.83980
H         -4.41070       -0.74490       -3.12650
H         -5.84560        0.17600       -3.72010
H         -5.65650       -1.48210       -4.19850
H         -5.85770        0.00360        2.58350
H         -6.68110       -1.21800        4.25300
H         -7.31500       -2.39880        5.73040
H         -7.28180       -4.14350        5.92660
H         -8.83670       -3.22990        6.07880
H         -9.12390       -5.04660        2.82380
H         -9.86880       -4.78280        4.39690
H         -8.29350       -5.66750        4.25620
H         -8.50110       -3.86590        1.33450
H         -7.66520       -2.60530       -0.25140
