49

N         -0.67900        1.19300        0.00100
C         -1.32840        0.07510        0.46660
C         -2.75860        0.12430        0.90960
C         -0.68620       -1.16680        0.47970
C          0.62490       -1.27800        0.02050
C          1.33130       -2.60220        0.01620
C          1.28110       -0.13550       -0.43640
C          0.61930        1.10350       -0.44460
C          1.39930        2.32380       -0.85480
Pt        -1.69140        3.03290        0.00550
Br        -1.39500        3.20220       -2.56190
C         -1.93740        2.89230        2.13670
C         -2.35130        3.90010        2.90610
N         -2.70380        4.87270        0.01000
C         -1.94920        5.99540       -0.13570
C         -2.54670        7.25760       -0.14700
C         -3.93390        7.35920       -0.06340
C         -4.71110        6.19940        0.01940
C         -6.10740        6.26620        0.01880
C         -6.86950        5.09350        0.02390
C         -6.24900        3.82840        0.04760
C         -7.02710        2.54740        0.00510
O         -6.41970        1.48670        0.05760
C         -8.52620        2.46090       -0.12560
C         -4.83790        3.77620        0.08310
C         -4.06700        4.94200        0.06850
H         -3.18300        1.12920        0.78570
H         -2.84150       -0.18290        1.97370
H         -3.36550       -0.56450        0.28570
H         -1.21420       -2.04510        0.83440
H          0.68100       -3.41260        0.40650
H          2.23990       -2.54230        0.65010
H          1.62740       -2.86040       -1.02260
H          2.30760       -0.21360       -0.77590
H          2.45820        2.07420       -1.07930
H          1.39270        3.05930       -0.02380
H          1.01270        2.79420       -1.76430
H         -1.71870        1.94690        2.61940
H         -2.59640        4.87070        2.50050
H         -2.46150        3.74800        3.97530
H         -0.87380        5.91060       -0.20420
H         -1.93920        8.14860       -0.23150
H         -4.39880        8.33760       -0.09570
H         -6.61150        7.22560       -0.02400
H         -7.94080        5.21510       -0.00330
H         -9.03930        3.43430       -0.19530
H         -8.94050        1.91960        0.74930
H         -8.77800        1.89200       -1.04660
H         -4.33390        2.82690        0.08130
