44

N          1.14300       -0.69700        0.08900
C         -0.03060       -1.35740        0.32460
C         -0.02570       -2.81820        0.64610
C         -1.25630       -0.68890        0.19320
C         -1.26960        0.65800       -0.14720
C         -0.07120        1.33330       -0.34740
C          1.14590        0.64690       -0.21850
C          2.42880        1.44340       -0.27420
Pt         2.95390       -1.70510        0.42730
Br         2.30030       -2.04600        2.91020
C          3.49640       -1.42220       -1.63380
C          2.79560       -0.76820       -2.56760
N          4.76480       -2.71320        0.76550
C          4.84140       -3.70090       -0.34620
C          4.80110       -3.46770        2.02300
C          5.95660       -1.90930        0.57370
C          5.87970       -0.54120        0.27540
C          7.05110        0.21630        0.11890
C          8.30850       -0.37660        0.26890
C          8.40480       -1.72920        0.57690
C          7.25060       -2.48900        0.72510
H          1.00650       -3.22630        0.64590
H         -0.60110       -3.36540       -0.12870
H         -0.49300       -2.99350        1.63720
H         -2.18760       -1.21140        0.36110
H         -2.21090        1.18310       -0.23410
H         -0.09510        2.39410       -0.56830
H          2.22780        2.52500       -0.43270
H          3.12160        1.14780       -1.07190
H          2.95660        1.33590        0.69600
H          4.39240       -1.88590       -2.01970
H          1.84190       -0.30710       -2.38260
H          3.16670       -0.72340       -3.58640
H          3.87570       -3.74280       -0.88280
H          5.00070       -4.74980       -0.01100
H          5.64650       -3.52720       -1.10570
H          3.91000       -4.13410        2.08410
H          4.84260       -2.79070        2.89660
H          5.67660       -4.14360        2.11050
H          4.92480       -0.05610        0.16920
H          6.98900        1.27050       -0.11430
H          9.21240        0.20720        0.15050
H          9.37620       -2.19610        0.69880
H          7.37810       -3.53480        0.96230
