54

N         -0.67900        1.19300        0.00100
C          0.67840        1.20270        0.11580
C          1.40560        2.50270        0.25660
C          1.38840       -0.00260        0.11680
C          0.69390       -1.21210       -0.00740
C          1.42760       -2.52030       -0.01110
C         -0.70200       -1.19270       -0.12990
C         -1.38200        0.03390       -0.12250
C         -2.87170        0.09520       -0.26070
Pt        -1.69140        3.03290        0.00550
Br        -1.45920        3.16690       -2.57060
C         -1.88410        2.92160        2.14390
C         -1.47930        1.88930        2.88550
P         -2.87730        5.18810        0.01070
C         -4.16250        5.94680        1.06650
C         -1.72460        6.61000        0.04580
C         -0.89970        6.84660       -1.06570
C         -0.12690        8.01490       -1.14140
C         -0.17090        8.96160       -0.12120
C         -0.97250        8.73820        0.99650
C         -1.73780        7.57680        1.08200
C         -3.84310        5.16550       -1.51400
C         -4.43950        3.98390       -1.97900
C         -5.19030        3.99450       -3.16130
C         -5.36930        5.18670       -3.86970
C         -4.80140        6.37120       -3.39670
C         -4.04180        6.36150       -2.22510
H          0.69800        3.35800        0.24340
H          2.12540        2.62500       -0.57980
H          1.95770        2.51850        1.22040
H          2.46820        0.00470        0.21300
H          2.52360       -2.37440        0.09740
H          1.23820       -3.05300       -0.96660
H          1.07380       -3.14940        0.83300
H         -1.24850       -2.12270       -0.22970
H         -3.31710       -0.91760       -0.36000
H         -3.13240        0.68380       -1.16510
H         -3.31010        0.58940        0.63090
H         -2.26440        3.79880        2.65700
H         -1.01100        1.01710        2.45490
H         -1.55090        1.94910        3.96710
H         -3.82030        5.96430        2.12270
H         -5.03410        5.25580        1.07140
H         -4.49260        6.94250        0.71690
H         -0.88380        6.14910       -1.89160
H          0.48230        8.20210       -2.01790
H          0.40340        9.87590       -0.19170
H         -1.02040        9.47590        1.78820
H         -2.35430        7.48690        1.96110
H         -4.31150        3.05600       -1.43660
H         -5.63510        3.07940       -3.52940
H         -5.95210        5.19610       -4.78190
H         -4.94910        7.29820       -3.93640
H         -3.61660        7.29170       -1.87210
