26

C          0.90100       -0.64300       -0.00200
N         -0.34760       -0.96100        0.37390
C         -1.07180        0.14790        0.15260
C         -0.24360        1.10810       -0.36780
O          0.95910        0.59480       -0.44760
Pt         2.65840       -1.88140       -0.01350
Br         3.90510       -0.09930       -1.41990
C          1.62360       -3.36080        1.15400
C          0.37850       -3.50300        1.63280
N          4.37500       -3.09110       -0.02470
C          4.72360       -2.97990        1.40170
N          4.22770       -4.43660       -0.24240
C          5.20700       -4.86280       -0.96720
C          6.05570       -3.82580       -1.30440
C          5.52470       -2.69380       -0.72180
H         -2.13070        0.24250        0.35270
H         -0.51680        2.11090       -0.66740
H          2.22890       -4.21610        1.41530
H         -0.44670       -2.83800        1.54250
H          0.14540       -4.39980        2.20080
H          3.97460       -3.39180        2.09230
H          4.88600       -1.92370        1.69540
H          5.65060       -3.56120        1.63930
H          5.30770       -5.89380       -1.27130
H          6.96340       -3.87170       -1.88960
H          5.95650       -1.70230       -0.76590
