73

P          0.98420        0.00560        0.09860
C         -0.07930        1.20510       -0.92220
C          0.14290        2.71200       -0.63840
C         -0.37210        3.38720       -1.89990
C          0.31270        2.57600       -2.96060
C          0.24220        1.13570       -2.43400
C          0.49440       -1.64040       -0.62200
C         -1.02140       -1.88690       -0.52690
C         -1.21420       -3.08850       -1.43710
C         -0.44390       -2.63080       -2.65990
C          0.85780       -2.04330       -2.07930
C          0.28880        0.34770        1.79960
C          0.84340       -0.47580        2.95170
C          0.14490        0.15490        4.14440
C          0.39220        1.62830        3.88020
C          0.22280        1.78190        2.36290
Pt         3.44420        0.00560        0.09860
Br         3.44420       -2.02730        1.70350
C          3.44420        1.69300       -1.23370
C          3.58230        1.62230       -2.55750
C          5.59420        0.00560        0.09860
N          6.27610        0.07290        1.17990
C          5.69290        0.51150        2.43610
C          5.80210        2.04570        2.53020
C          7.68490        0.17830        0.87480
C          7.74680       -0.30810       -0.56110
N          6.41520       -0.02400       -1.05980
C          5.90880       -0.56040       -2.31980
C          6.59790       -1.86150       -2.76070
H         -1.16460        1.05630       -0.78160
H          1.22750        2.93900       -0.53780
H         -0.36720        3.12210        0.24700
H         -0.12320        4.47110       -1.97140
H         -1.46870        3.24800       -1.98310
H          1.37130        2.91780       -2.92730
H         -0.00940        2.71050       -4.01460
H          1.23610        0.73010       -2.65410
H         -0.53710        0.53740       -2.94020
H          0.94040       -2.42470        0.02370
H         -1.59710       -1.04930       -0.97520
H         -1.38710       -2.03540        0.51080
H         -2.28680       -3.31040       -1.64470
H         -0.73140       -3.98190       -0.99080
H         -1.03780       -1.80180       -3.11430
H         -0.29540       -3.39570       -3.45070
H          1.23920       -1.29830       -2.78840
H          1.63250       -2.83020       -2.01990
H         -0.78060        0.03360        1.72890
H          1.93210       -0.27760        3.04970
H          0.65620       -1.56770        2.85310
H          0.54410       -0.18200        5.13030
H         -0.94460       -0.06580        4.10700
H          1.46760        1.80480        4.10540
H         -0.20020        2.33980        4.49630
H          1.00550        2.47490        1.99500
H         -0.79810        2.17510        2.14680
H          3.41510        2.67370       -0.77310
H          3.63360        0.68180       -3.08160
H          3.63810        2.53540       -3.14160
H          6.20430        0.04520        3.30040
H          4.60740        0.28500        2.47750
H          6.86400        2.38400        2.53280
H          5.32210        2.43560        3.45050
H          5.30350        2.52690        1.65440
H          8.34930       -0.40460        1.55760
H          7.96820        1.25160        0.89000
H          7.85920       -1.41850       -0.49550
H          8.56940        0.11010       -1.17300
H          6.01360        0.20840       -3.11010
H          4.84380       -0.85000       -2.19640
H          7.68680       -1.71840       -2.91480
H          6.15470       -2.21330       -3.71660
H          6.43460       -2.65650       -1.99840
