68

P          0.94250        0.00030       -0.08180
C          0.00660       -1.40820        0.89420
C         -1.54310       -1.59720        0.87220
C         -1.99650       -1.85660       -0.53050
C         -1.43640       -3.18400       -1.02500
C          0.09910       -3.23190       -0.87410
C          0.54220       -2.82670        0.54050
C          0.29540        1.56700        0.92630
C          0.68270        3.01940        0.44030
C          0.05100        3.43930       -0.87550
C         -1.48190        3.38490       -0.77490
C         -2.00010        2.05500       -0.17860
C         -1.25440        1.74790        1.12760
C          0.73650        0.08520       -2.15520
C          1.18980       -0.93840       -3.31590
C          0.13680       -1.88720       -3.97140
C         -1.07210       -1.14040       -4.52920
C         -1.62230       -0.09900       -3.55720
C         -0.48890        0.77310       -2.94870
Pt         3.40250        0.00030       -0.08180
Br         3.40250       -2.26300       -1.34100
C          3.40250        1.87910        0.96340
C          3.25720        1.79620        2.28390
O          5.45250        0.00030       -0.08180
C          6.21640        0.95000        0.42580
C          7.54220        0.61680        0.26060
C          7.55380       -0.59690       -0.38300
C          6.23570       -0.94150       -0.57710
H          0.28960       -1.24860        1.95430
H         -2.16540       -0.82240        1.27230
H         -1.83890       -2.46430        1.50650
H         -1.57900       -1.01940       -1.07820
H         -3.10470       -1.85970       -0.60290
H         -1.76710       -3.34000       -2.07310
H         -1.89980       -4.00330       -0.43560
H          0.58190       -2.49500       -1.48210
H          0.47390       -4.23240       -1.16080
H          1.64090       -2.85560        0.63970
H          0.14510       -3.58750        1.24690
H          0.68990        1.43030        1.95000
H          1.70950        3.26710        0.30550
H          0.35500        3.75400        1.21350
H          0.49990        2.81680       -1.65630
H          0.35100        4.48050       -1.13020
H         -1.93920        3.60450       -1.76530
H         -1.79230        4.19980       -0.08700
H         -1.89930        1.18110       -0.82500
H         -3.09300        2.16570       -0.01000
H         -1.69910        0.97000        1.70850
H         -1.45050        2.60790        1.80080
H          1.52100        0.86570       -2.24770
H          2.09670       -1.48370       -3.18500
H          1.50280       -0.30980       -4.18210
H         -0.21450       -2.69400       -3.32980
H          0.59660       -2.44300       -4.81760
H         -1.87590       -1.84890       -4.84110
H         -0.73120       -0.60430       -5.43890
H         -2.30180       -0.55600       -2.83840
H         -2.30500        0.55480       -4.14560
H         -0.92540        1.65000       -2.52070
H         -0.03050        1.23640       -3.85520
H          3.67150        2.81370        0.48170
H          3.08230        0.81270        2.71700
H          3.33070        2.66210        2.92570
H          5.88730        1.85790        0.90640
H          8.40210        1.19410        0.56950
H          8.42330       -1.16820       -0.67750
H          5.93760       -1.85340       -1.05860
