45

N         -0.65900       -1.22800       -0.05100
C          0.23110       -0.70780       -0.96260
N          0.53420       -1.37820       -2.21140
C          0.47590       -2.82380       -2.37790
C          0.92010       -0.62810       -3.39900
C          0.82870        0.54320       -0.68570
C          0.51080        1.22510        0.48320
C         -0.41790        0.68940        1.36460
C         -1.00730       -0.53770        1.07030
Pt        -1.57560       -3.10440       -0.27260
Br        -3.48180       -2.01120       -1.64350
C          0.00680       -4.01180        0.86550
C          1.05440       -3.35780        1.36950
N         -2.49230       -4.98070       -0.49410
C         -2.74450       -5.89170        0.50750
N         -2.65990       -5.51870        1.91560
C         -2.85520       -4.13750        2.34480
C         -2.81690       -6.53230        2.95470
C         -3.25000       -7.16500        0.16020
C         -3.44840       -7.50040       -1.17010
C         -3.17150       -6.57560       -2.16060
C         -2.72320       -5.30650       -1.79920
H          0.20760       -3.33860       -1.46480
H         -0.25870       -3.08050       -3.16600
H          1.47830       -3.19990       -2.68240
H          0.79140        0.46300       -3.28410
H          0.25500       -0.91400       -4.24140
H          1.97320       -0.85500       -3.67930
H          1.55250        0.99070       -1.34890
H          0.98560        2.17340        0.69970
H         -0.66680        1.21380        2.27710
H         -1.71520       -0.96900        1.76470
H         -0.03550       -5.08690        1.00290
H          1.19270       -2.29580        1.23390
H          1.82340       -3.91150        1.89940
H         -2.40910       -3.40760        1.66320
H         -3.94630       -3.91710        2.41230
H         -2.42280       -3.96700        3.35550
H         -1.98800       -7.26500        2.88350
H         -3.79820       -7.04630        2.86840
H         -2.79640       -6.09370        3.97500
H         -3.52540       -7.90590        0.89680
H         -3.82450       -8.48630       -1.42780
H         -3.28550       -6.84700       -3.20050
H         -2.45730       -4.60680       -2.57920
