105
 
P 1.0693 -0.0052 0.0719
C 0.2202 0.1550 -1.5164
C 1.0367 0.3202 -2.6640
C 0.4719 0.6816 -3.9018
C 1.3244 0.9638 -5.1146
C -0.9144 0.8448 -3.9897
C -1.7242 0.6370 -2.8670
C -1.1618 0.2885 -1.6328
C 0.5888 -1.6629 0.5861
C 0.8682 -2.8100 -0.1464
C 0.4436 -4.0648 0.3335
C 0.6452 -5.2931 -0.4835
C -0.2087 -4.1705 1.5733
C -0.4767 -3.0270 2.3170
C -0.0980 -1.7788 1.8195
C 0.6035 1.4893 1.0111
C -0.2110 2.5178 0.4905
C -0.5439 3.6395 1.2706
C -1.3385 4.7715 0.6839
C -0.1001 3.7168 2.5966
C 0.6779 2.6901 3.1333
C 1.0346 1.5905 2.3443
Ag 3.5293 -0.0052 0.0719
P 5.9893 -0.0052 0.0719
C 6.5721 -0.7452 -1.6022
C 6.1922 -0.0192 -2.8204
C 5.3983 1.2722 -2.9134
C 6.5700 -0.4749 -4.1012
C 7.2891 -1.6378 -4.2687
C 7.7024 -2.1478 -5.6155
C 7.6233 -2.3795 -3.1664
C 7.2845 -2.0008 -1.8513
C 7.7130 -3.0608 -0.8646
C 6.5079 1.7359 0.1905
C 5.7276 2.6197 0.9787
C 4.4034 2.2405 1.5999
C 6.1811 3.9237 1.2133
C 7.4071 4.3628 0.7160
C 7.8930 5.7491 1.0095
C 8.1773 3.5111 -0.0719
C 7.7446 2.2142 -0.3806
C 8.6636 1.4251 -1.3092
C 6.3545 -0.8964 1.7306
C 5.4195 -1.4497 2.6865
C 3.9547 -1.6337 2.4681
C 5.8690 -1.8776 3.9708
C 7.2179 -1.8325 4.3249
C 7.7453 -2.2384 5.6680
C 8.1255 -1.3883 3.4039
C 7.7131 -0.9234 2.1635
C 8.7809 -0.4034 1.3349
H 2.1169 0.2291 -2.5859
H 2.4043 0.7917 -4.9224
H 1.1989 2.0314 -5.4025
H 1.0126 0.3338 -5.9750
H -1.3647 1.1525 -4.9263
H -2.7897 0.7910 -2.9451
H -1.7880 0.1962 -0.7590
H 1.3885 -2.7198 -1.0880
H 1.1622 -5.0546 -1.4353
H -0.3592 -5.7026 -0.7245
H 1.2287 -6.0470 0.0823
H -0.5207 -5.1362 1.9575
H -0.9884 -3.1101 3.2716
H -0.3403 -0.9068 2.4161
H -0.5881 2.4790 -0.5157
H -1.6252 4.5671 -0.3697
H -0.6987 5.6790 0.6898
H -2.2594 4.9742 1.2708
H -0.3536 4.5738 3.2111
H 1.0128 2.7526 4.1614
H 1.6426 0.8097 2.7813
H 5.0472 1.7000 -1.9638
H 4.5025 1.1005 -3.5534
H 6.0116 2.0441 -3.4377
H 6.2988 0.0886 -4.9912
H 7.3530 -1.4954 -6.4407
H 7.2745 -3.1647 -5.7521
H 8.8116 -2.2198 -5.6496
H 8.1691 -3.2958 -3.3679
H 8.0374 -4.0011 -1.3773
H 6.8639 -3.3954 -0.2446
H 8.6663 -2.8138 -0.3800
H 4.1649 1.1854 1.5714
H 3.6012 2.8290 1.1143
H 4.4362 2.4807 2.6838
H 5.5861 4.5951 1.8206
H 7.1490 6.3185 1.6054
H 8.0596 6.2839 0.0522
H 8.8439 5.7082 1.5829
H 9.1254 3.8698 -0.4585
H 9.6066 1.9558 -1.5367
H 8.1810 1.2716 -2.2763
H 8.9985 0.4499 -0.9730
H 3.6722 -1.4818 1.4295
H 3.3783 -0.9893 3.1660
H 3.6984 -2.6953 2.6868
H 5.1653 -2.2499 4.7079
H 6.9371 -2.5683 6.3468
H 8.2736 -1.3724 6.1320
H 8.4824 -3.0592 5.5340
H 9.1771 -1.3601 3.6766
H 9.8074 -0.5395 1.7167
H 8.5874 0.6680 1.2964
H 8.6873 -0.9563 0.4092
