75
 
P 1.0438 -0.0705 0.0557
C 0.3098 1.0948 1.2364
C -1.0499 1.4158 1.3798
C -1.4547 2.3273 2.3688
C -0.5172 2.9052 3.2331
Cl -1.0294 4.0353 4.4748
C 0.8311 2.5750 3.1117
C 1.2390 1.6839 2.1186
C 0.6283 0.6665 -1.5347
C 1.6425 0.9606 -2.4507
C 1.3175 1.4183 -3.7358
C -0.0212 1.5871 -4.1111
Cl -0.4245 2.1759 -5.7143
C -1.0393 1.2680 -3.2116
C -0.7177 0.7983 -1.9361
C 0.5680 -1.6730 0.6789
C -0.7944 -2.0124 0.7223
C -1.1971 -3.2669 1.1756
C -0.2388 -4.1965 1.5844
Cl -0.7621 -5.7657 2.1749
C 1.1285 -3.8715 1.5181
C 1.5406 -2.6031 1.0586
Ag 3.5038 -0.0705 0.0557
P 5.9638 -0.0705 0.0557
C 6.6681 0.6042 1.6334
C 7.8610 0.1688 2.2456
C 8.3401 0.7964 3.4108
C 7.6391 1.8568 3.9907
C 6.4348 2.2726 3.4319
C 5.9398 1.6350 2.2849
C 6.3684 -1.8225 0.1290
C 6.6384 -2.4336 -1.1127
C 6.9932 -3.7789 -1.1879
C 7.1002 -4.5287 -0.0187
C 6.8571 -3.9271 1.2231
C 6.4864 -2.5757 1.3015
C 6.4564 1.0467 -1.3513
C 6.0213 2.5167 -1.3176
C 6.8791 3.3636 -0.3641
C 8.3856 3.2173 -0.6258
C 8.8180 1.7461 -0.6557
C 7.9769 0.9531 -1.6596
H -1.8053 0.9832 0.7540
H -2.5009 2.5811 2.4707
H 1.5640 3.0040 3.7866
H 2.2939 1.4382 2.0530
H 2.6792 0.8023 -2.1783
H 2.1051 1.6295 -4.4453
H -2.0794 1.3656 -3.5051
H -1.5319 0.5135 -1.2924
H -1.5506 -1.3126 0.3947
H -2.2536 -3.5123 1.2060
H 1.8607 -4.6067 1.8233
H 2.6028 -2.3192 0.9849
H 8.4424 -0.6257 1.8069
H 9.2702 0.4758 3.8599
H 8.0270 2.3562 4.8735
H 5.8953 3.1021 3.8806
H 5.0083 2.0024 1.8675
H 6.5741 -1.8689 -2.0369
H 7.1882 -4.2352 -2.1525
H 7.3771 -5.5734 -0.0785
H 6.9600 -4.5112 2.1257
H 6.3140 -2.1242 2.2663
H 5.9400 0.5763 -2.2178
H 4.9367 2.5785 -1.0834
H 6.1762 2.9334 -2.3392
H 6.7134 3.0616 0.6485
H 6.5698 4.4263 -0.4080
H 8.9419 3.7372 0.1864
H 8.6394 3.6877 -1.5951
H 8.7055 1.3185 0.3318
H 9.8995 1.6616 -0.8905
H 8.3078 -0.1088 -1.6825
H 8.1782 1.3772 -2.6682
