62
 
P 1.0770 -0.0636 0.0049
C 0.3841 0.8958 -1.3778
C -0.9755 1.1119 -1.6290
C -1.3760 1.8571 -2.7431
C -0.4318 2.4066 -3.6335
O -0.8055 3.0665 -4.7631
C -2.1081 3.1430 -5.2200
C 0.9288 2.2472 -3.3533
C 1.3308 1.5049 -2.2350
C 0.6422 -1.7223 -0.5672
C 1.6444 -2.6553 -0.8277
C 1.3156 -3.9559 -1.2148
C -0.0299 -4.3564 -1.3414
O -0.3741 -5.6010 -1.7678
C 0.5271 -6.5490 -2.2145
C -1.0393 -3.4405 -1.0212
C -0.7078 -2.1357 -0.6322
C 0.5270 0.5018 1.6282
C -0.8510 0.5664 1.8726
C -1.3460 1.0218 3.0858
C -0.4711 1.4213 4.1072
O -0.9384 1.9179 5.2860
C -2.2759 2.1533 5.5632
C 0.9173 1.3102 3.8909
C 1.4196 0.8501 2.6535
Ag 3.5370 -0.0636 0.0049
C 5.6870 -0.0636 0.0049
N 6.4487 -1.0690 0.4649
C 5.9796 -2.3492 0.9755
C 7.7277 -0.6828 0.2835
C 7.7192 0.5840 -0.2735
N 6.4348 0.9507 -0.4567
C 5.9322 2.2165 -0.9719
H -1.7416 0.7190 -0.9903
H -2.4331 1.9904 -2.9126
H -2.1472 3.6850 -6.1860
H -2.7369 3.6827 -4.4819
H -2.5132 2.1175 -5.3775
H 1.6783 2.6794 -4.0113
H 2.3954 1.3939 -2.0499
H 2.6839 -2.3833 -0.7196
H 2.1206 -4.6464 -1.4129
H -0.0098 -7.4620 -2.5409
H 1.2266 -6.8200 -1.3966
H 1.1009 -6.1503 -3.0815
H -2.0831 -3.7367 -1.0745
H -1.5150 -1.4679 -0.3698
H -1.5666 0.2728 1.1270
H -2.4198 1.0659 3.2115
H -2.3866 2.5897 6.5761
H -2.8484 1.2020 5.5237
H -2.7022 2.8717 4.8263
H 1.6052 1.5924 4.6787
H 2.4922 0.7649 2.4900
H 4.8686 -2.3855 0.9663
H 6.3478 -2.4974 2.0083
H 6.3581 -3.1713 0.3263
H 8.5990 -1.2753 0.5307
H 8.5821 1.1890 -0.5207
H 6.7732 2.8925 -1.2352
H 5.3121 2.7167 -0.1932
H 5.3081 2.0310 -1.8675
