40
 
P 1.0946 0.0248 0.0208
C 0.3398 -0.1311 -1.6617
C -1.1793 -0.1701 -1.7457
C 0.9068 0.9871 -2.5530
C 0.5501 -1.4314 0.9985
C 1.0368 -2.7651 0.4441
C 0.9958 -1.2624 2.4575
C 0.6395 1.7066 0.5477
Ag 3.5546 0.0248 0.0208
N 5.6546 0.0248 0.0208
C 6.2915 -0.5868 -1.0125
C 7.6782 -0.7419 -0.9937
C 8.4089 -0.2647 0.1026
C 9.8907 -0.4850 0.1889
C 7.7332 0.3929 1.1409
C 6.3414 0.5241 1.0827
H 0.7216 -1.0818 -2.0940
H -1.6305 0.7397 -1.3076
H -1.5681 -1.0831 -1.2532
H -1.4702 -0.2255 -2.8211
H 0.5442 1.9841 -2.2330
H 0.6040 0.8398 -3.6108
H 2.0205 0.9827 -2.5174
H -0.5612 -1.4301 0.9836
H 2.1392 -2.8543 0.5361
H 0.7332 -2.8837 -0.6137
H 0.5604 -3.5880 1.0237
H 2.1043 -1.2244 2.5309
H 0.6228 -2.1048 3.0795
H 0.5799 -0.3237 2.8850
H -0.4699 1.7757 0.5760
H 1.0533 2.4903 -0.1103
H 1.0104 1.8659 1.5811
H 5.7144 -0.9855 -1.8362
H 8.1696 -1.2540 -1.8117
H 10.2685 -1.0592 -0.6845
H 10.1144 -1.0753 1.1040
H 10.4268 0.4841 0.2408
H 8.2747 0.7696 1.9999
H 5.8060 0.9917 1.8980
