87
 
P 0.9657 -0.0265 -0.0901
C 0.2041 1.5539 0.3140
C -1.1598 1.8545 0.2653
C -1.6020 3.1421 0.6484
C -3.0499 3.5089 0.5891
C -0.6785 4.1045 1.0946
C 0.6763 3.7967 1.1555
C 1.1131 2.5347 0.7613
C 0.5017 -0.1607 -1.8200
C 0.8648 0.7735 -2.7788
C 0.4236 0.6206 -4.1054
C 0.7563 1.6559 -5.1247
C -0.3555 -0.4917 -4.4717
C -0.6907 -1.4514 -3.5198
C -0.2683 -1.2863 -2.1994
C 0.6181 -1.2917 1.1200
C 1.7014 -1.9167 1.7451
C 1.4556 -3.0268 2.5880
C 2.5756 -3.7653 3.2461
C 0.1395 -3.4853 2.7900
C -0.9329 -2.8443 2.1717
C -0.6988 -1.7471 1.3379
Ag 3.4257 -0.0265 -0.0901
P 5.8857 -0.0265 -0.0901
C 6.4989 -1.6835 -0.9520
C 5.9370 -1.7468 -2.3895
C 7.9990 -2.0808 -1.1772
C 5.8347 -2.8442 -0.1913
C 6.3597 1.5052 -1.2167
C 5.7816 2.7381 -0.5024
C 7.8839 1.8410 -1.4875
C 5.7519 1.4648 -2.6230
C 6.3904 -0.2526 1.7253
C 7.9229 -0.0715 2.1892
C 8.4887 1.2581 1.7090
C 8.0573 -0.0643 3.7162
C 8.8723 -1.1564 1.6877
H -1.8627 1.1065 -0.0698
H -3.6670 2.6478 0.2624
H -3.1838 4.3412 -0.1344
H -3.3966 3.8397 1.5912
H -1.0063 5.0917 1.4025
H 1.3890 4.5338 1.5113
H 2.1748 2.3175 0.8251
H 1.4684 1.6185 -2.4845
H 1.4033 2.4452 -4.6885
H -0.1906 2.1239 -5.4650
H 1.2787 1.1946 -5.9875
H -0.7024 -0.6161 -5.4916
H -1.2872 -2.3142 -3.8036
H -0.5551 -2.0439 -1.4778
H 2.7216 -1.5472 1.5181
H 3.5521 -3.2927 3.0198
H 2.5863 -4.8113 2.8707
H 2.4238 -3.7822 4.3469
H -0.0564 -4.3511 3.4159
H -1.9414 -3.2194 2.3205
H -1.5431 -1.2913 0.8343
H 6.5517 -1.1510 -3.0770
H 4.8655 -1.4768 -2.4385
H 6.0477 -2.7686 -2.8208
H 8.6145 -1.2559 -1.5883
H 8.0986 -2.9016 -1.9272
H 8.4634 -2.6285 -0.3385
H 4.7311 -2.7203 -0.1918
H 6.1922 -2.8913 0.8545
H 6.0767 -3.8251 -0.6583
H 6.1934 2.8220 0.5250
H 4.6791 2.6613 -0.4326
H 6.0487 3.6798 -1.0346
H 8.3933 2.4584 -0.7198
H 8.0036 2.5838 -2.3082
H 8.4893 0.9647 -1.7922
H 4.6746 1.2297 -2.5941
H 6.3154 0.8077 -3.2952
H 5.8941 2.4532 -3.1202
H 5.9352 -1.1528 2.1738
H 5.8788 0.6105 2.2102
H 7.8356 2.1163 1.9565
H 8.6035 1.1090 0.6585
H 9.5250 1.4618 2.0566
H 7.3887 0.6967 4.1608
H 9.1086 0.1996 3.9965
H 7.8509 -1.0672 4.1386
H 9.0111 -0.9760 0.6310
H 8.5077 -2.1754 1.9411
H 9.9119 -1.0327 2.0561
