81
 
P 1.0448 -0.0749 -0.0488
C 0.1500 -0.2214 -1.6321
C -1.2348 -0.3860 -1.7525
C -1.8312 -0.4483 -3.0258
C -1.0568 -0.3335 -4.1864
F -1.6426 -0.3879 -5.4108
C 0.3209 -0.1564 -4.0826
C 0.9217 -0.1054 -2.8171
C 0.5725 -1.6510 0.7691
C 0.9322 -2.9280 0.3123
C 0.5093 -4.0790 1.0104
C -0.2668 -3.9713 2.1701
F -0.6830 -5.0869 2.8263
C -0.6104 -2.7120 2.6533
C -0.1940 -1.5626 1.9631
C 0.6826 1.6076 0.5197
C -0.6485 2.0305 0.7483
C -0.9234 3.3271 1.2028
C 0.1246 4.2153 1.4407
F -0.1529 5.4771 1.8695
C 1.4550 3.7985 1.2428
C 1.7474 2.4852 0.7843
Ag 3.5048 -0.0749 -0.0488
P 5.9648 -0.0749 -0.0488
C 6.6666 0.4000 1.6646
C 6.1856 -0.6528 2.7019
C 8.1941 0.5169 1.7471
C 6.0576 1.7180 2.1870
C 6.4696 -1.8256 -0.6065
C 5.9122 -2.1179 -2.0252
C 8.0172 -1.9640 -0.6500
C 5.9101 -2.9575 0.2701
C 6.3998 1.3554 -1.0939
C 5.9975 2.6667 -0.8821
C 6.2594 3.6538 -1.8364
C 6.8874 3.3589 -3.0789
N 6.9833 4.3381 -4.1494
C 6.4877 5.7019 -4.0141
C 7.4509 4.0162 -5.4990
C 7.3508 2.0410 -3.2449
C 7.1233 1.0820 -2.2715
H -1.8503 -0.4678 -0.8725
H -2.8999 -0.5801 -3.1178
H 0.9188 -0.0532 -4.9847
H 1.9951 0.0476 -2.7742
H 1.5353 -3.0401 -0.5733
H 0.7793 -5.0638 0.6549
H -1.2030 -2.6320 3.5620
H -0.4830 -0.6021 2.3739
H -1.4831 1.3629 0.5853
H -1.9499 3.6466 1.3725
H 2.2451 4.5080 1.4518
H 2.7875 2.1053 0.6247
H 6.7162 -1.6040 2.6156
H 5.0837 -0.8128 2.6336
H 6.4114 -0.3496 3.7470
H 8.7027 -0.4464 1.6323
H 8.4933 0.8650 2.7604
H 8.5691 1.2324 0.9905
H 4.9481 1.7082 2.0926
H 6.5113 2.6023 1.7154
H 6.2896 1.8552 3.2687
H 6.2680 -1.4681 -2.8350
H 4.8050 -2.0710 -2.0259
H 6.2226 -3.1390 -2.3470
H 8.5265 -1.1394 -1.1833
H 8.3338 -2.9120 -1.1309
H 8.4443 -2.0146 0.3600
H 4.8074 -2.8741 0.3526
H 6.3648 -3.0207 1.2588
H 6.1673 -3.9439 -0.1770
H 5.4325 2.9511 -0.0193
H 5.8915 4.6200 -1.5694
H 6.0951 5.9709 -3.0284
H 5.6520 5.8584 -4.7289
H 7.3032 6.4193 -4.2307
H 7.7769 2.9811 -5.6665
H 8.3007 4.6738 -5.7748
H 6.6227 4.1827 -6.2229
H 7.8618 1.6831 -4.1239
H 7.4934 0.1130 -2.5139
