53
 
P 1.0249 0.0735 -0.0630
C 0.3909 1.3332 -1.2523
C -0.9479 1.5889 -1.6182
C -1.2446 2.5949 -2.5691
C -0.2262 3.3634 -3.1468
Cl -0.5956 4.5719 -4.3730
C 1.0919 3.1614 -2.7512
C 1.3938 2.1622 -1.8172
C 0.7056 -1.4985 -0.9655
C 1.7782 -2.3509 -1.2896
C 1.5524 -3.6211 -1.8509
C 0.2514 -4.0666 -2.0955
Cl -0.0251 -5.6566 -2.7996
C -0.8292 -3.2489 -1.7608
C -0.6101 -1.9773 -1.1946
C 0.4240 0.3665 1.6334
C -0.9631 0.3581 1.8823
C -1.4668 0.5756 3.1715
C -0.5929 0.7959 4.2367
Cl -1.2353 1.1061 5.8448
C 0.7898 0.7700 4.0150
C 1.3021 0.5528 2.7188
Ag 3.4849 0.0735 -0.0630
P 5.9449 0.0735 -0.0630
O 6.7625 1.5810 0.1752
C 8.1665 1.4944 0.1314
C 8.6193 0.0562 -0.0477
C 10.1488 -0.0206 -0.0603
C 7.9827 -0.7408 1.1586
O 6.5937 -0.4655 1.4037
O 6.6147 -0.1625 -1.5983
C 8.0081 -0.4269 -1.4181
H -1.7643 1.0295 -1.1946
H -2.2668 2.7823 -2.8724
H 1.8843 3.7723 -3.1765
H 2.4336 2.0387 -1.5378
H 2.7937 -2.0519 -1.0769
H 2.3880 -4.2716 -2.0815
H -1.8382 -3.6155 -1.9253
H -1.4782 -1.3995 -0.9114
H -1.6653 0.1826 1.0804
H -2.5379 0.5765 3.3433
H 1.4599 0.9222 4.8530
H 2.3767 0.5262 2.5651
H 8.5649 1.9073 1.0842
H 8.5304 2.1320 -0.7037
H 10.5563 0.3781 0.8944
H 10.5498 0.6078 -0.8870
H 10.4899 -1.0646 -0.1988
H 8.5208 -0.4361 2.0821
H 8.1444 -1.8316 1.0225
H 8.5295 0.1218 -2.2332
H 8.2080 -1.5092 -1.5634
