63
 
P 0.9464 0.0203 -0.0820
C 0.1821 0.4855 -1.8306
C -1.3568 0.5311 -1.9179
C 0.6348 1.8702 -2.3959
C 0.7091 -0.5021 -2.9021
C 0.4923 -1.9168 0.2307
C 1.2033 -2.8564 -0.7672
C 0.8748 -2.5959 1.5972
C -1.0401 -2.1812 0.2096
C 0.4807 1.3781 1.1248
C 1.0112 1.2860 2.6220
C 2.5567 1.2566 2.5979
C 0.5211 2.5035 3.4384
C 0.5100 0.0804 3.4331
Ag 3.4064 0.0203 -0.0820
N 5.5064 0.0203 -0.0820
C 6.1381 -1.0250 -0.6582
C 7.5202 -1.1501 -0.5633
C 8.2873 -0.1889 0.1470
N 9.7196 -0.3525 0.3513
C 10.4759 -1.4981 -0.1490
C 10.5233 0.5688 1.1493
C 7.5707 0.9148 0.6880
C 6.1839 0.9925 0.5660
H -1.7709 1.3561 -1.3123
H -1.8666 -0.3793 -1.6491
H -1.6684 0.6700 -2.9808
H 0.3453 2.7227 -1.7560
H 0.1153 2.0516 -3.3775
H 1.7129 1.9212 -2.6600
H 0.1388 -1.4295 -2.8904
H 1.8131 -0.6493 -2.8014
H 0.5256 -0.1644 -3.9457
H 2.2917 -2.6472 -0.7664
H 0.8129 -2.8694 -1.7714
H 1.0497 -3.9281 -0.5066
H 1.9578 -2.5919 1.8326
H 0.5996 -3.6817 1.5860
H 0.2032 -2.3514 2.4414
H -1.4968 -2.0817 -0.7669
H -1.5633 -1.5665 0.9816
H -1.2830 -3.2450 0.4329
H -0.6301 1.4263 1.1545
H 0.8535 2.3323 0.7038
H 2.9482 2.1802 2.1403
H 2.9490 0.4049 2.0081
H 2.9456 1.1650 3.6383
H 0.8490 3.4517 2.9776
H 0.9291 2.4670 4.4781
H -0.5894 2.5043 3.5344
H 1.0953 -0.7568 3.1155
H -0.5976 -0.0581 3.3924
H 0.7883 0.1332 4.5111
H 5.5547 -1.7847 -1.1628
H 7.9247 -2.0279 -1.0294
H 9.9082 -2.2281 -0.7381
H 10.9048 -2.0590 0.7092
H 11.3051 -1.1466 -0.7972
H 9.9891 1.4300 1.5672
H 11.3523 0.9742 0.5331
H 10.9532 0.0232 2.0167
H 8.0203 1.7190 1.2379
H 5.6395 1.8108 1.0194
