71
 
P 1.0638 -0.0520 -0.0568
C 0.2919 1.5320 0.3576
C -1.1115 1.7994 0.3502
C -2.1720 0.7951 -0.0174
C -1.5552 3.1117 0.5581
C -0.6537 4.1606 0.7618
C -1.1357 5.5588 0.9753
C 0.7134 3.9153 0.7339
C 1.2023 2.6304 0.5196
C 2.7061 2.5072 0.3734
C 0.5286 -0.3753 -1.8921
C -0.2406 0.5620 -2.6855
C -0.4347 2.0188 -2.4403
C -0.8337 0.2057 -3.8989
C -0.6273 -1.0083 -4.4931
C -1.2706 -1.2543 -5.8389
C 0.2173 -1.9167 -3.8583
C 0.7913 -1.6376 -2.5764
C 1.6893 -2.7216 -2.0295
C 0.7645 -0.9751 1.5399
C -0.4004 -1.8134 1.7023
C -1.3174 -2.2830 0.6022
C -0.7261 -2.3729 2.9419
C 0.1053 -2.2384 4.0353
C -0.3107 -2.8221 5.3622
C 1.3494 -1.6287 3.8534
C 1.7189 -1.0313 2.6127
C 3.1683 -0.5830 2.4664
Ag 3.5238 -0.0520 -0.0568
C 5.6738 -0.0520 -0.0568
N 6.4404 0.1281 1.0347
H 6.1169 0.3104 2.0100
C 7.7096 0.0571 0.5921
Cl 9.1299 0.2412 1.6030
C 7.6886 -0.1792 -0.7665
Cl 9.0718 -0.3793 -1.8254
N 6.4078 -0.2380 -1.1687
H -1.7227 -0.1105 -0.3857
H -2.7741 1.1301 -0.8892
H -2.8701 0.6026 0.8164
H -2.6146 3.3264 0.5090
H -2.2434 5.6038 0.9729
H -0.7482 6.2308 0.1787
H -0.7659 5.9084 1.9605
H 1.4080 4.7413 0.8477
H 3.2571 3.4606 0.4885
H 2.9898 2.0708 -0.6072
H 3.1049 1.8998 1.1459
H 0.3734 2.4355 -1.8440
H -1.4810 2.2789 -2.2009
H -0.2226 2.5589 -3.3850
H -1.4492 0.9285 -4.4256
H -1.9217 -0.3992 -6.1425
H -1.9148 -2.1558 -5.8249
H -0.4876 -1.3466 -6.6179
H 0.4110 -2.8540 -4.3738
H 1.7879 -3.5744 -2.7482
H 1.3102 -3.1390 -1.0798
H 2.7138 -2.3143 -1.9044
H -0.9698 -2.0267 -0.4091
H -2.3664 -1.9741 0.7918
H -1.3041 -3.3978 0.5929
H -1.6385 -2.9546 3.0467
H -1.3375 -3.2541 5.3194
H -0.3265 -2.0229 6.1334
H 0.3876 -3.6243 5.6725
H 2.0328 -1.6402 4.6953
H 3.7269 -0.8517 3.3981
H 3.3679 0.4287 2.3061
H 3.6601 -1.0967 1.6500
H 6.0507 -0.4180 -2.1330
