71
 
P 0.9684 0.0281 -0.0906
C 0.1536 -1.5678 -0.0549
C -1.2232 -1.6973 0.0200
C -1.7921 -2.9621 0.1366
C -0.9903 -4.1237 0.1705
O -1.5267 -5.3556 0.3715
C -2.8583 -5.5761 0.6687
C 0.3964 -3.9965 0.0179
C 0.9657 -2.7239 -0.0976
C 0.4436 0.4448 1.5853
C 0.8329 -0.2502 2.7326
C 0.2854 0.0996 3.9754
C -0.6608 1.1433 4.0860
O -1.2619 1.4597 5.2637
C -1.0784 0.7759 6.4490
C -1.0084 1.8647 2.9402
C -0.4562 1.5225 1.7049
C 0.5877 1.0454 -1.5343
C -0.2015 0.5694 -2.5886
C -0.4670 1.3839 -3.6933
C 0.0462 2.6947 -3.7637
O -0.1696 3.4977 -4.8405
C -0.7981 3.0981 -6.0052
C 0.8079 3.1803 -2.6919
C 1.0773 2.3615 -1.5869
Ag 3.4284 0.0281 -0.0906
C 5.5784 0.0281 -0.0906
N 6.2740 0.7971 -0.8295
C 5.7073 1.7132 -1.7862
C 7.6875 0.6051 -0.6010
C 7.7307 -0.2853 0.6513
N 6.3793 -0.7865 0.7438
C 5.9588 -1.9253 1.5110
C 6.9021 -2.7087 2.2141
C 6.5055 -3.8579 2.9067
C 5.1643 -4.2390 2.9232
C 4.2182 -3.4758 2.2415
C 4.6117 -2.3370 1.5345
H -1.8490 -0.8195 0.0139
H -2.8633 -3.0202 0.2248
H -3.0369 -6.6542 0.8470
H -3.4923 -5.2401 -0.1781
H -3.1413 -5.0173 1.5903
H 1.0367 -4.8757 0.0175
H 2.0437 -2.6471 -0.1986
H 1.5377 -1.0660 2.6696
H 0.5866 -0.4620 4.8462
H -1.7189 1.2141 7.2412
H -0.0171 0.8501 6.7636
H -1.3613 -0.2928 6.3220
H -1.7267 2.6773 2.9964
H -0.7639 2.0854 0.8305
H -0.6143 -0.4287 -2.5700
H -1.0723 0.9822 -4.4929
H -0.8457 3.9435 -6.7208
H -1.8343 2.7651 -5.7857
H -0.2287 2.2666 -6.4770
H 1.2018 4.1908 -2.7159
H 1.6699 2.7572 -0.7712
H 4.5848 1.6514 -1.7629
H 6.0824 1.4652 -2.8028
H 6.0353 2.7448 -1.5331
H 8.2446 1.5501 -0.4274
H 8.1008 0.0641 -1.4812
H 7.9018 0.3338 1.5630
H 8.5159 -1.0611 0.5504
H 7.9528 -2.4576 2.2186
H 7.2416 -4.4594 3.4248
H 4.8590 -5.1305 3.4556
H 3.1775 -3.7743 2.2462
H 3.8595 -1.8185 1.0010
