99
 
P 0.9223 0.0563 -0.0281
C 0.1821 1.6981 -0.3157
C -1.1809 1.9646 -0.5735
C -2.1895 0.8876 -0.7626
C -1.6414 3.2939 -0.5639
C -0.7808 4.3624 -0.2798
C -1.2759 5.7735 -0.2215
C 0.5544 4.1111 -0.0082
C 1.0393 2.8048 -0.0226
C 2.4462 2.6044 0.4139
C 0.6891 -0.7814 -1.7284
C 1.2474 -0.2967 -2.9793
C 1.8345 1.0565 -3.2713
C 1.2504 -1.1091 -4.1316
C 0.6659 -2.3573 -4.1597
C 0.7242 -3.1974 -5.4104
C -0.0060 -2.7991 -3.0354
C -0.0295 -2.0571 -1.8292
C -0.8842 -2.7282 -0.7468
C 0.3916 -0.5117 1.7435
C -0.4462 0.2760 2.6161
C -0.8557 1.6768 2.4463
C -0.9413 -0.1958 3.8274
C -0.6356 -1.4297 4.3155
C -1.1996 -1.7944 5.6683
C 0.2090 -2.2469 3.5623
C 0.7384 -1.8208 2.2974
C 1.6987 -2.8014 1.6509
Ag 3.3823 0.0563 -0.0281
P 5.8423 0.0563 -0.0281
C 6.4704 1.6548 -0.6253
C 5.6546 2.7277 -0.2546
C 5.8586 4.0253 -0.7067
C 6.9577 4.2891 -1.5104
C 7.8400 3.2468 -1.8417
C 7.5932 1.9211 -1.4154
C 6.3611 0.0900 1.6943
C 5.4406 -0.0332 2.7413
C 5.8908 0.0613 4.0720
C 7.2489 0.2739 4.3509
C 8.1701 0.3550 3.3061
C 7.7303 0.2533 1.9836
C 6.3692 -1.1230 -1.3351
C 5.9629 -2.5551 -0.9521
C 4.6007 -2.9006 -0.9019
C 4.1956 -4.2039 -0.5825
C 5.1406 -5.1890 -0.2959
C 6.4999 -4.8730 -0.3261
C 6.9157 -3.5673 -0.6534
H -1.7169 -0.0846 -0.7164
H -2.6821 0.9898 -1.7467
H -2.9399 0.9344 0.0550
H -2.6901 3.4931 -0.7298
H -2.3552 5.8267 -0.4657
H -0.7087 6.3844 -0.9535
H -1.1203 6.1950 0.7970
H 1.2104 4.9342 0.2647
H 2.9470 3.5623 0.6728
H 2.9623 2.1204 -0.4324
H 2.5006 1.9684 1.3314
H 1.7296 1.7863 -2.4634
H 1.2650 1.4776 -4.1435
H 2.8870 0.9654 -3.6111
H 1.7150 -0.7563 -5.0475
H 1.3390 -2.7123 -6.2004
H -0.2991 -3.3448 -5.8094
H 1.1843 -4.1876 -5.1967
H -0.5000 -3.7644 -3.1040
H -1.5455 -3.4996 -1.2026
H -1.6059 -2.0655 -0.2539
H -0.3690 -3.3338 -0.0076
H -0.1428 2.1973 1.8868
H -0.6249 2.2347 3.3759
H -1.9320 1.7622 2.1960
H -1.5756 0.4479 4.4320
H -1.8385 -0.9745 6.0810
H -0.3775 -1.9402 6.3974
H -1.8408 -2.6930 5.6005
H 0.4630 -3.2146 3.9868
H 1.7295 -3.7723 2.2069
H 2.7176 -2.3804 1.6571
H 1.4875 -3.0533 0.6121
H 4.8455 2.5340 0.3978
H 5.1653 4.8162 -0.4296
H 7.1239 5.3020 -1.8589
H 8.7059 3.4737 -2.4431
H 8.2674 1.1304 -1.6952
H 4.3852 -0.1903 2.5149
H 5.1913 -0.0147 4.8931
H 7.5913 0.3748 5.3750
H 9.2225 0.5099 3.5205
H 8.4591 0.3245 1.1845
H 7.4808 -1.0816 -1.3731
H 5.9611 -0.8561 -2.3264
H 3.8475 -2.1590 -1.1217
H 3.1435 -4.4535 -0.5614
H 4.8160 -6.1963 -0.0523
H 7.2252 -5.6491 -0.0990
H 7.9793 -3.3631 -0.6688
