46
 
P 1.0472 0.0847 0.0244
C 0.2231 -1.5160 0.0646
C -1.1596 -1.6566 0.1393
C -1.7274 -2.9312 0.2334
C -0.9178 -4.0733 0.2445
F -1.4770 -5.3013 0.3787
C 0.4666 -3.9469 0.1225
C 1.0379 -2.6730 0.0272
C 0.5145 0.5021 1.7056
C 0.9000 -0.1901 2.8614
C 0.3614 0.1798 4.1078
C -0.5604 1.2312 4.2033
F -1.1058 1.5614 5.4012
C -0.9238 1.9403 3.0609
C -0.3835 1.5847 1.8246
C 0.6699 1.0803 -1.4255
C -0.6651 1.3912 -1.7643
C -0.9524 2.1992 -2.8677
C 0.0892 2.7067 -3.6435
F -0.2007 3.4892 -4.7172
C 1.4252 2.4164 -3.3036
C 1.7290 1.6022 -2.1818
Ag 3.5072 0.0847 0.0244
N 5.6072 0.0847 0.0244
C 6.2450 0.8716 -0.8824
C 7.6373 0.8432 -0.9816
C 8.3610 -0.0139 -0.1502
F 9.7114 -0.0790 -0.2538
C 7.6876 -0.8118 0.7795
C 6.2925 -0.7401 0.8602
H -1.7902 -0.7848 0.1450
H -2.7987 -3.0290 0.3136
H 1.0937 -4.8339 0.1165
H 2.1188 -2.5986 -0.0604
H 1.5994 -1.0106 2.8002
H 0.6450 -0.3554 5.0032
H -1.6340 2.7581 3.1285
H -0.6945 2.1488 0.9543
H -1.4933 1.0276 -1.1740
H -1.9837 2.4363 -3.1181
H 2.2115 2.8373 -3.9154
H 2.7726 1.3635 -1.8529
H 5.6651 1.5115 -1.5347
H 8.1456 1.4659 -1.7067
H 8.2391 -1.4889 1.4187
H 5.7534 -1.3688 1.5562
