72
 
P 1.0670 0.0640 0.0376
C 0.1623 -0.1148 1.6814
C -1.1787 -0.5607 1.8132
C -2.0531 -0.8159 0.6532
C -1.7530 -0.8087 3.0789
C -1.0372 -0.6050 4.2471
C 0.2748 -0.1526 4.1674
C 0.8782 0.0761 2.9060
C 0.6019 1.8631 -0.2075
C 1.4101 2.9954 0.1148
C 2.7794 2.9109 0.6559
C 0.9338 4.3030 -0.0715
C -0.3136 4.5395 -0.6213
C -1.1016 3.4660 -1.0136
C -0.6559 2.1480 -0.8107
C 0.8815 -1.3923 -1.2345
C 1.2934 -2.7727 -1.0428
C 2.1174 -3.2381 0.1186
C 0.9058 -3.7906 -1.9644
C 0.2066 -3.4918 -3.1262
C -0.0799 -2.1664 -3.4135
C 0.2389 -1.1394 -2.4903
Ag 3.5270 0.0640 0.0376
P 5.9870 0.0640 0.0376
N 6.9072 -1.4984 0.1620
C 6.5883 -2.2536 1.4098
C 6.4198 -2.4366 -0.8950
N 6.4114 0.2841 -1.7026
C 6.0179 1.6222 -2.1876
C 7.8792 0.1710 -1.9327
N 6.5036 1.1451 1.3790
C 6.0319 0.7736 2.7153
C 7.9432 1.4544 1.4072
H -1.5448 -0.5996 -0.2898
H -2.9340 -0.1492 0.7580
H -2.3587 -1.8807 0.6621
H -2.7712 -1.1754 3.1599
H -1.5090 -0.8063 5.2079
H 0.8165 -0.0007 5.0975
H 1.9126 0.3955 2.9102
H 3.1273 1.9355 0.5235
H 2.7671 3.2146 1.7191
H 3.4803 3.5386 0.0634
H 1.5514 5.1511 0.2017
H -0.6522 5.5608 -0.7545
H -2.0636 3.6667 -1.4721
H -1.3130 1.3637 -1.1492
H 2.6192 -2.3602 0.5653
H 2.9610 -3.9307 -0.1383
H 1.4615 -3.8510 0.7604
H 1.1469 -4.8387 -1.7954
H -0.0935 -4.2862 -3.8155
H -0.5811 -1.9521 -4.3554
H -0.0518 -0.1426 -2.7789
H 7.0225 -1.8283 2.3155
H 7.0573 -3.2679 1.3877
H 5.4910 -2.4373 1.5441
H 6.4844 -2.0514 -1.9241
H 5.3518 -2.7289 -0.7492
H 7.0399 -3.3608 -0.9008
H 4.9313 1.7985 -2.0778
H 6.2489 1.7085 -3.2769
H 6.5880 2.4379 -1.6814
H 8.2872 -0.8282 -1.6976
H 8.4643 0.9005 -1.3463
H 8.1214 0.3281 -3.0053
H 4.9521 0.5318 2.7038
H 6.1891 1.6297 3.4074
H 6.6304 -0.0349 3.1591
H 8.2617 1.9656 0.4817
H 8.5574 0.5494 1.6036
H 8.1579 2.1945 2.2125
