53
 
P 1.0094 -0.0647 -0.0757
C 0.3192 1.4406 -0.8353
C -1.0228 1.6561 -1.1898
C -1.3603 2.7505 -2.0145
C -0.3740 3.6453 -2.4712
C -0.6988 4.7354 -3.4606
C 0.9443 3.4802 -2.0398
C 1.2851 2.3854 -1.2413
C 0.7234 -1.4422 -1.2279
C 1.8323 -2.1375 -1.7312
C 1.6483 -3.2177 -2.6158
C 0.3571 -3.6193 -3.0056
C 0.1530 -4.7352 -4.0014
C -0.7529 -2.9488 -2.4749
C -0.5755 -1.8670 -1.5946
C 0.4644 0.0313 1.6574
C -0.9106 -0.0480 1.9511
C -1.3693 0.0061 3.2718
C -0.4620 0.1152 4.3320
C -0.9584 0.2895 5.7423
C 0.9151 0.0905 4.0572
C 1.3774 0.0488 2.7279
Ag 3.4694 -0.0647 -0.0757
O 5.5194 -0.0647 -0.0757
C 6.2756 0.8263 0.5150
C 7.5962 0.4870 0.2918
C 7.5778 -0.6693 -0.4664
C 6.2486 -0.9727 -0.6738
H -1.7973 0.9629 -0.9061
H -2.3848 2.8798 -2.3376
H -1.7483 4.6626 -3.8165
H -0.0460 4.6192 -4.3570
H -0.5265 5.7418 -3.0290
H 1.7204 4.1630 -2.3730
H 2.3303 2.2473 -0.9868
H 2.8364 -1.8345 -1.4324
H 2.5116 -3.7421 -3.0042
H 1.1200 -5.1237 -4.3868
H -0.4184 -4.3408 -4.8697
H -0.4170 -5.5826 -3.5624
H -1.7543 -3.2620 -2.7586
H -1.4597 -1.3743 -1.2130
H -1.6406 -0.1538 1.1615
H -2.4353 -0.0280 3.4674
H -2.0661 0.3882 5.7750
H -0.5376 1.2376 6.1437
H -0.6521 -0.5500 6.3982
H 1.6264 0.1257 4.8747
H 2.4432 0.0272 2.5419
H 5.9106 1.6796 1.0702
H 8.4722 1.0175 0.6400
H 8.4330 -1.2262 -0.8254
H 5.8540 -1.8170 -1.2234
