58
 
P 1.0491 0.0470 0.0733
C 0.3342 -1.2674 -0.9581
C -1.0331 -1.4825 -1.1553
C -1.4748 -2.5943 -1.8666
C -0.5638 -3.5004 -2.4403
O -0.9804 -4.6290 -3.0727
C -2.2887 -5.0765 -3.0669
C 0.8067 -3.2362 -2.3358
C 1.2512 -2.1318 -1.5969
C 0.5536 -0.7331 1.6302
C 1.4731 -1.1174 2.6118
C 1.0170 -1.6922 3.8075
C -0.3633 -1.8877 4.0377
O -0.8409 -2.4917 5.1549
C -0.0528 -3.0570 6.1337
C -1.2751 -1.4427 3.0840
C -0.8202 -0.8588 1.9104
C 0.5204 1.7035 -0.3781
C -0.2864 2.4146 0.5283
C -0.7864 3.6716 0.1984
C -0.4793 4.2543 -1.0437
O -0.9895 5.4601 -1.4137
C -1.9203 6.1788 -0.6837
C 0.3676 3.5603 -1.9275
C 0.8628 2.2883 -1.5968
Ag 3.5091 0.0470 0.0733
N 5.6091 0.0470 0.0733
C 6.2513 1.2029 -0.2434
C 7.6433 1.2254 -0.3547
C 8.3630 0.0489 -0.1354
F 9.7128 0.0449 -0.2641
C 7.6859 -1.1256 0.2048
C 6.2908 -1.1060 0.3075
H -1.7802 -0.8241 -0.7608
H -2.5394 -2.7468 -1.9477
H -2.3665 -6.0402 -3.6069
H -2.9473 -4.3338 -3.5635
H -2.6291 -5.2330 -2.0175
H 1.5304 -3.9033 -2.7950
H 2.3207 -1.9695 -1.5037
H 2.5341 -0.9652 2.4687
H 1.7439 -1.9858 4.5493
H -0.6945 -3.5162 6.9115
H 0.5799 -2.2754 6.6024
H 0.5891 -3.8498 5.6897
H -2.3441 -1.5446 3.2408
H -1.5649 -0.4956 1.2337
H -0.5562 1.9985 1.4916
H -1.4239 4.1764 0.9132
H -2.1744 7.1189 -1.2134
H -1.5079 6.4377 0.3144
H -2.8527 5.5833 -0.5583
H 0.6287 3.9949 -2.8831
H 1.4975 1.7532 -2.2888
H 5.6752 2.0989 -0.4344
H 8.1550 2.1403 -0.6249
H 8.2343 -2.0440 0.3697
H 5.7489 -2.0118 0.5440
