82
 
P 0.9323 -0.0262 0.0687
C 0.0307 0.1894 1.7641
C -1.4083 0.3038 1.9120
C -2.3843 0.4090 0.8084
C -2.0345 0.2318 3.1700
C -1.3161 0.1005 4.3367
C -2.0112 -0.0581 5.6576
C 0.0592 0.0946 4.2744
C 0.7572 0.1383 3.0425
C 2.2541 0.0293 3.2445
C 0.3677 1.4288 -1.0928
C 0.6109 2.8856 -0.9917
C 1.1137 3.7646 0.1509
C 0.2814 3.7379 -2.0820
C -0.3381 3.2940 -3.2292
C -0.6798 4.2573 -4.3399
C -0.7267 1.9754 -3.2906
C -0.4390 1.0668 -2.2579
C -1.1363 -0.2656 -2.4735
C 0.7702 -1.8487 -0.4219
C 0.0009 -2.9084 0.1904
C -0.7861 -2.8238 1.4476
C -0.1207 -4.1678 -0.4398
C 0.4814 -4.4310 -1.6662
C 0.3696 -5.7562 -2.3581
C 1.1963 -3.4333 -2.2890
C 1.3459 -2.1708 -1.7080
C 2.0563 -1.1615 -2.5677
Ag 3.3923 -0.0262 0.0687
P 5.8523 -0.0262 0.0687
C 6.7462 -1.4798 0.6852
C 6.3590 0.2177 -1.6560
C 6.3376 1.1850 1.3060
C 5.9411 1.0642 2.6409
C 6.3536 2.0147 3.5825
C 7.1706 3.0830 3.1967
C 7.5773 3.2050 1.8664
C 7.1601 2.2618 0.9219
H -1.8646 0.5609 -0.1173
H -3.0452 1.2888 0.9750
H -3.0101 -0.5111 0.7958
H -3.1171 0.2442 3.2404
H -3.1158 -0.0657 5.5396
H -1.7230 0.7739 6.3291
H -1.7135 -1.0277 6.1178
H 0.5841 -0.0052 5.2224
H 2.5384 0.1835 4.3200
H 2.8068 0.8242 2.7129
H 2.5890 -1.0060 3.0416
H 1.3917 3.3548 1.1329
H 0.2356 4.4208 0.3942
H 1.8978 4.4828 -0.2032
H 0.5008 4.8029 -2.0450
H -0.3931 5.2998 -4.0815
H -1.7782 4.2449 -4.4903
H -0.1713 3.9944 -5.2941
H -1.2821 1.6464 -4.1640
H -1.1805 -0.5980 -3.5270
H -2.1484 -0.2535 -2.0240
H -0.7548 -1.0716 -1.9277
H -0.6846 -1.9191 1.9231
H -0.4112 -3.5180 2.2162
H -1.8719 -2.9464 1.2379
H -0.7150 -4.9494 0.0251
H -0.2786 -6.4634 -1.8033
H 1.3894 -6.1889 -2.4465
H -0.0408 -5.6148 -3.3827
H 1.6136 -3.6419 -3.2693
H 2.3336 -1.5623 -3.5651
H 2.9291 -0.7855 -2.0225
H 1.4157 -0.3225 -2.8343
H 6.4108 -2.3357 0.0505
H 6.3761 -1.7133 1.7084
H 7.8425 -1.3978 0.6548
H 5.9950 -0.6283 -2.2757
H 7.4704 0.2259 -1.6942
H 5.9679 1.1766 -2.0447
H 5.3181 0.2374 2.9500
H 6.0432 1.9210 4.6136
H 7.4912 3.8139 3.9284
H 8.2174 4.0280 1.5693
H 7.4921 2.3701 -0.1042
