91
 
P 0.9072 -0.0022 0.0371
C 0.0543 1.5996 0.0921
C -1.1088 1.8564 0.8211
C -1.7490 3.1017 0.6951
C -1.2227 4.1023 -0.1444
C -1.9608 5.3884 -0.3853
C -0.0125 3.8756 -0.8048
C 0.6171 2.6365 -0.6914
C 0.2907 -0.5400 -1.6182
C -0.6571 0.2253 -2.3498
C -1.3077 -0.2971 -3.4627
C -1.0281 -1.5909 -3.8992
C -1.8362 -2.1999 -5.0095
C -0.0331 -2.3323 -3.2465
C 0.6112 -1.8138 -2.1119
C 0.3637 -1.0761 1.3938
C -0.4259 -2.1999 1.1114
C -0.9486 -2.9859 2.1398
C -0.6938 -2.6619 3.4784
C -1.3099 -3.4657 4.5893
C 0.1213 -1.5576 3.7724
C 0.6476 -0.7654 2.7372
Ag 3.3672 -0.0022 0.0371
C 5.5172 -0.0022 0.0371
N 6.2837 1.1469 0.0154
C 5.8760 2.5749 0.0349
C 4.6211 2.9628 0.5900
C 3.7155 2.0276 1.2828
C 4.1945 4.2956 0.6070
C 4.9859 5.3117 0.1103
C 4.5056 6.7343 0.1850
C 6.2326 4.9945 -0.4196
C 6.7002 3.6583 -0.4657
C 8.0747 3.4866 -1.0568
C 7.5517 0.6803 0.0065
C 7.5592 -0.6826 0.0361
N 6.2967 -1.1481 0.0690
C 5.9261 -2.5825 0.0628
C 6.6935 -3.6348 0.7001
C 7.9680 -3.4775 1.4912
C 6.2526 -4.9798 0.6246
C 5.0937 -5.3308 -0.0624
C 4.5908 -6.7405 -0.1426
C 4.3873 -4.3509 -0.7176
C 4.7938 -3.0180 -0.6757
C 4.0242 -2.1022 -1.5152
H -1.5444 1.0898 1.4423
H -2.6740 3.2750 1.2267
H -2.9318 5.4070 0.1522
H -2.1821 5.4610 -1.4741
H -1.3571 6.2699 -0.0869
H 0.4225 4.6442 -1.4372
H 1.5366 2.4778 -1.2467
H -0.9923 1.2041 -2.0591
H -2.0714 0.2984 -3.9501
H -2.6464 -1.5149 -5.3452
H -2.3312 -3.1192 -4.6245
H -1.1989 -2.4611 -5.8753
H 0.1951 -3.3374 -3.5768
H 1.2998 -2.4445 -1.5800
H -0.6720 -2.4616 0.0957
H -1.5728 -3.8338 1.8867
H -1.9551 -4.2824 4.1973
H -1.9489 -2.7995 5.2083
H -0.5232 -3.9122 5.2310
H 0.3245 -1.3010 4.8060
H 1.2469 0.0997 2.9925
H 4.2874 1.2020 1.7473
H 2.8317 1.8712 0.6678
H 3.3250 2.5102 2.2064
H 3.2365 4.5478 1.0507
H 3.4912 6.7987 0.6389
H 4.4553 7.1743 -0.8314
H 5.1965 7.3284 0.8192
H 6.8498 5.8086 -0.7862
H 8.4975 4.4359 -1.4489
H 8.0461 2.7598 -1.8950
H 8.7878 3.2088 -0.2606
H 8.4613 1.2316 0.0033
H 8.4672 -1.2593 -0.0017
H 8.3316 -2.4597 1.6506
H 8.7667 -4.0658 0.9817
H 7.8221 -3.8916 2.5090
H 6.8181 -5.7670 1.1120
H 5.2524 -7.4470 0.3961
H 4.5255 -7.0449 -1.2095
H 3.5717 -6.7914 0.3012
H 3.5039 -4.6348 -1.2811
H 3.4061 -2.6285 -2.2640
H 4.7215 -1.4635 -2.0961
H 3.2995 -1.7041 -0.8455
