99
 
P 0.9591 -0.0790 -0.0457
C -0.0438 -0.0304 1.6471
C 0.0046 -1.1596 2.7827
C 1.0769 -1.0437 3.8917
C 1.2233 0.3864 4.4430
C 1.3648 1.4124 3.3115
C 0.1192 1.3165 2.4293
C 0.2632 1.5690 -0.7718
C 0.7469 1.9817 -2.1592
C 0.2306 1.0069 -3.2191
C -1.3064 0.9140 -3.2226
C -1.8599 0.6384 -1.8231
C -1.3072 1.6523 -0.8236
C 0.6546 -1.7343 -1.0076
C -0.5500 -2.5444 -0.9834
C -1.6640 -2.4525 -0.0039
C -0.7816 -3.5548 -1.9421
C 0.1461 -3.8573 -2.9153
C 1.3561 -3.1917 -2.9124
C 1.6096 -2.1707 -1.9747
Ag 3.4191 -0.0790 -0.0457
C 5.5691 -0.0790 -0.0457
N 6.2995 -0.4679 -1.0593
C 5.8835 -1.1329 -2.2856
C 4.7461 -0.7046 -3.0311
C 3.8782 0.4627 -2.6054
C 4.4534 -1.3220 -4.2809
C 5.2528 -2.3527 -4.7980
C 5.0494 -2.9459 -6.1675
C 6.3117 -2.8217 -4.0511
C 6.6505 -2.2423 -2.8261
C 7.8579 -2.8702 -2.1742
C 7.6972 -0.3550 -0.6984
C 7.6977 0.6170 0.4292
N 6.3990 0.4149 1.0082
C 6.0630 0.7639 2.3518
C 6.8395 1.6905 3.1554
C 8.0006 2.5648 2.7133
C 6.5127 1.8658 4.5090
C 5.4566 1.1776 5.0885
C 5.1022 1.3667 6.5317
C 4.7128 0.3063 4.3120
C 4.9801 0.1009 2.9624
C 4.0654 -0.8679 2.2761
H -1.0864 0.0094 1.3319
H -0.0085 -2.2042 2.4074
H -0.9353 -1.0312 3.3680
H 1.9905 -1.4190 3.5007
H 0.8736 -1.7367 4.7401
H 2.0524 0.4756 5.1672
H 0.3206 0.6451 5.0328
H 2.2739 1.3445 2.7074
H 1.4422 2.4185 3.7655
H 0.0728 2.1975 1.7950
H -0.7455 1.4293 3.1184
H 0.6187 2.3950 -0.1331
H 1.8433 2.0824 -2.1531
H 0.3544 3.0037 -2.3872
H 0.6413 0.0149 -2.9976
H 0.5880 1.3217 -4.2193
H -1.6196 0.0976 -3.9088
H -1.7428 1.8684 -3.5849
H -1.5496 -0.3486 -1.5019
H -2.9716 0.6446 -1.8431
H -1.7986 1.5275 0.1567
H -1.6361 2.6650 -1.1545
H -1.4156 -1.8566 0.8216
H -1.8231 -3.4514 0.4533
H -2.5992 -2.0877 -0.4676
H -1.7100 -4.1189 -1.9380
H -0.0720 -4.6258 -3.6526
H 2.0888 -3.4597 -3.6673
H 2.5635 -1.7300 -2.0609
H 4.1729 0.9969 -1.7176
H 2.8631 0.1948 -2.4044
H 3.8729 1.1759 -3.4681
H 3.6275 -0.9686 -4.8854
H 4.1914 -2.4893 -6.6977
H 4.9113 -4.0472 -6.1109
H 5.9663 -2.7498 -6.7727
H 6.9104 -3.6337 -4.4600
H 8.2102 -3.7914 -2.6872
H 7.6174 -3.1911 -1.1400
H 8.7075 -2.1642 -2.2388
H 8.3484 0.0010 -1.5272
H 8.0455 -1.3015 -0.2456
H 7.7259 1.6155 -0.0655
H 8.5442 0.4211 1.1235
H 8.1751 2.6728 1.6433
H 8.9342 2.2072 3.1956
H 7.8207 3.6156 3.0313
H 7.0879 2.5532 5.1204
H 5.8021 2.0646 7.0361
H 5.1315 0.3898 7.0573
H 4.0769 1.7881 6.6037
H 3.9259 -0.2591 4.7680
H 3.9386 -1.7393 2.9237
H 4.3943 -1.4092 1.3942
H 3.0945 -0.3822 2.2399
