71
 
P 1.0988 0.0144 0.0063
C 0.2642 -1.6770 -0.2717
C 0.3948 -3.0007 0.6160
C -0.7069 -3.2759 1.6889
C -2.1081 -2.9831 1.1496
C -2.1594 -1.6077 0.4782
C -1.1779 -1.5629 -0.7102
C 0.4886 0.6298 1.7092
C 0.8815 -0.2056 2.9243
C 2.3400 -0.0240 3.2952
C 2.6415 1.4496 3.5848
C 2.2471 2.3314 2.3891
C 0.7746 2.1173 2.0531
C 0.8714 1.0968 -1.4688
C -0.3160 1.9062 -1.6464
C -1.5685 1.8950 -0.7886
C -0.3666 2.8462 -2.6820
C 0.6982 3.0397 -3.5438
C 0.6238 4.1212 -4.5830
C 1.8318 2.2386 -3.4209
C 1.9402 1.2641 -2.4078
C 3.2169 0.4569 -2.3915
Ag 3.5588 0.0144 0.0063
C 5.7088 0.0144 0.0063
N 6.5579 1.0448 -0.2523
C 6.2736 2.4322 -0.5953
C 7.8038 0.5357 -0.1294
Cl 9.3009 1.4304 -0.3572
C 7.7084 -0.7927 0.2027
Cl 9.0593 -1.8872 0.4721
N 6.4018 -1.1133 0.2872
C 5.8370 -2.4174 0.6166
H 0.8903 -1.9479 -1.1475
H 1.4120 -3.2073 1.0179
H 0.2080 -3.8295 -0.1095
H -0.5910 -2.7075 2.6137
H -0.6668 -4.3409 2.0254
H -2.8400 -3.0294 1.9883
H -2.3944 -3.7489 0.3997
H -1.9566 -0.8431 1.2352
H -3.1818 -1.4259 0.1005
H -1.2735 -0.6703 -1.3315
H -1.4020 -2.4253 -1.3718
H -0.5969 0.5792 1.6799
H 0.7226 -1.2478 2.7227
H 0.2386 0.0939 3.7905
H 2.9585 -0.3838 2.4500
H 2.5536 -0.6380 4.1968
H 3.7224 1.5647 3.8011
H 2.0698 1.7737 4.4858
H 2.8516 2.0764 1.4964
H 2.4206 3.3975 2.6530
H 0.4435 2.8061 1.2494
H 0.1801 2.3971 2.9611
H -1.3933 1.8072 0.2758
H -2.3227 1.1790 -1.1714
H -2.0835 2.8793 -0.8370
H -1.2478 3.4675 -2.8045
H -0.3618 4.6379 -4.5685
H 0.7827 3.6978 -5.5937
H 1.4016 4.8851 -4.3691
H 2.6511 2.4004 -4.1105
H 3.7827 0.5598 -3.3360
H 3.0499 -0.6161 -2.1688
H 3.9279 0.8506 -1.6850
H 5.1856 2.6273 -0.6351
H 6.7315 2.6647 -1.5822
H 6.7404 3.0978 0.1641
H 6.6425 -3.1612 0.8003
H 5.2107 -2.7797 -0.2240
H 5.2204 -2.3389 1.5352
