75
 
P 0.9769 0.0810 0.0539
C 0.5215 -0.9251 -1.4067
C -0.3749 -0.4249 -2.3777
C -0.8168 -1.2273 -3.4316
C -0.3578 -2.5364 -3.5526
C 0.5584 -3.0385 -2.6256
C 0.9942 -2.2402 -1.5570
C 0.5068 -0.6645 1.6478
C -0.1750 -1.8976 1.6738
C -0.6706 -2.4170 2.8732
C -0.4786 -1.7230 4.0671
C 0.2296 -0.5179 4.0648
C 0.7226 0.0125 2.8616
C 0.0075 1.6021 0.0019
C -1.4714 1.5679 0.0106
C -2.2404 0.3998 0.0785
C -3.6261 0.4835 0.0156
C -4.2465 1.7312 -0.1098
C -3.4788 2.8978 -0.1598
C -2.0959 2.8139 -0.0984
Ag 3.4369 0.0810 0.0539
C 5.5869 0.0810 0.0539
N 6.3416 -1.0324 0.0701
C 5.7741 -2.3886 0.0926
C 4.2105 -2.3210 0.0926
C 6.2644 -3.2089 -1.1130
C 7.6271 -0.5792 0.0706
C 7.6211 0.8007 0.0464
C 8.8141 1.5448 0.0429
C 10.0298 0.8517 0.0510
C 10.0458 -0.5540 0.0720
C 8.8415 -1.2880 0.0893
N 6.3451 1.2503 0.0289
C 5.9577 2.7168 0.0059
C 5.1511 3.0842 1.2215
C 5.6318 2.5913 2.4274
C 4.7990 2.5496 3.5307
C 3.5345 3.1401 3.4886
C 3.1229 3.8341 2.3471
C 3.9159 3.7817 1.1884
H -0.7721 0.5749 -2.3272
H -1.5294 -0.8346 -4.1471
H -0.7168 -3.1593 -4.3629
H 0.9136 -4.0558 -2.7272
H 1.6739 -2.6643 -0.8374
H -0.3651 -2.4489 0.7653
H -1.2235 -3.3488 2.8730
H -0.8850 -2.1180 4.9912
H 0.3738 0.0141 4.9966
H 1.2379 0.9631 2.8805
H 0.3217 2.1023 -0.9401
H 0.3559 2.2276 0.8500
H -1.7894 -0.5726 0.1545
H -4.2099 -0.4247 0.0519
H -5.3202 1.7942 -0.1731
H -3.9427 3.8687 -0.2574
H -1.4982 3.7197 -0.1528
H 6.1166 -2.9008 1.0184
H 3.8294 -1.8018 -0.8010
H 3.8147 -1.7860 0.9699
H 3.8080 -3.3532 0.1040
H 5.9513 -2.7374 -2.0668
H 5.8564 -4.2410 -1.0656
H 7.3666 -3.3095 -1.1217
H 8.8408 2.6239 0.0306
H 10.9613 1.4063 0.0406
H 10.9994 -1.0673 0.0760
H 8.8910 -2.3639 0.1143
H 5.3974 2.9730 -0.9151
H 6.8576 3.3665 0.0211
H 6.6180 2.1467 2.4740
H 5.1399 2.0112 4.3981
H 2.8784 3.0579 4.3425
H 2.1632 4.3440 2.3532
H 3.5395 4.2474 0.2833
