41
 
P 1.2750 0.0000 -0.0000
O 0.4365 -0.5721 -1.3969
C -0.9581 -0.5257 -1.3024
C -1.4006 0.0160 0.0432
C -2.9306 0.0380 0.0991
C -0.7799 -0.9402 1.1332
O 0.6282 -1.1876 1.0198
O 0.6252 1.5608 -0.1009
C -0.7806 1.4607 0.1664
Ag 3.7350 0.0003 -0.0005
N 5.8350 0.0006 -0.0009
C 6.4603 -1.2081 -0.0421
C 7.8540 -1.2852 -0.0504
C 8.5987 -0.1096 -0.0383
C 7.9398 1.1241 -0.0229
C 8.6589 2.3110 -0.0491
C 7.9879 3.5269 -0.0423
C 6.5734 3.5888 0.0166
C 5.8593 4.9000 0.0512
O 4.6400 4.9071 0.1287
C 6.5571 6.2408 0.0090
C 5.8399 2.3712 0.0455
C 6.5288 1.1590 0.0091
H -1.3411 -1.5579 -1.4586
H -1.3385 0.1133 -2.1301
H -3.3282 -0.9905 -0.0528
H -3.3288 0.6763 -0.7212
H -3.2837 0.4280 1.0719
H -1.2794 -1.9297 1.0376
H -1.0048 -0.5447 2.1449
H -1.2834 2.1096 -0.5837
H -1.0027 1.8746 1.1723
H 5.8696 -2.1139 -0.0654
H 8.3533 -2.2451 -0.0737
H 9.6814 -0.1614 -0.0493
H 9.7424 2.3006 -0.0858
H 8.6176 4.3959 -0.0793
H 7.6543 6.2032 -0.0830
H 6.3360 6.7964 0.9427
H 6.1904 6.8213 -0.8617
H 4.7370 2.3130 0.0926
