73
 
P 1.0842 -0.0428 0.0329
C 0.2292 -0.1233 1.8068
C 0.6446 0.9694 2.8435
C -0.0411 2.3541 2.6460
C -1.5788 2.2676 2.4663
C -2.0288 1.0783 1.6270
C -1.3008 -0.2194 2.0536
C 0.8749 1.6132 -0.9712
C 1.5478 1.4464 -2.3318
C 0.6215 0.6540 -3.2963
C -0.6529 1.4464 -3.6299
C -1.3938 1.7941 -2.3477
C -0.4538 2.4298 -1.3005
C 0.5692 -1.7129 -0.6675
C -0.8282 -2.0441 -0.8847
C -1.9958 -1.1676 -0.6903
C -1.2307 -3.2745 -1.3489
C -0.3150 -4.2341 -1.6738
C -0.8053 -5.5470 -2.1671
C 1.0433 -3.9631 -1.5505
C 1.5143 -2.7271 -1.0532
C 3.0173 -2.5816 -0.9921
Ag 3.5442 -0.0428 0.0329
N 5.6442 -0.0428 0.0329
C 6.2942 0.2407 -1.1146
C 5.4683 0.3829 -2.3358
C 7.6906 0.3844 -1.1128
C 8.3848 0.2528 0.0949
C 7.6928 -0.0784 1.2609
C 6.3024 -0.2514 1.2055
C 5.5257 -0.6603 2.4158
H 0.6355 -1.0745 2.2178
H 1.7448 1.0335 2.9505
H 0.2903 0.6142 3.8428
H 0.1352 2.9744 3.5560
H 0.4124 2.9020 1.7998
H -1.9603 3.2110 2.0024
H -2.0658 2.1480 3.4508
H -1.8176 1.3387 0.6167
H -3.1329 0.9665 1.6616
H -1.6440 -1.1781 1.6797
H -1.5445 -0.3701 3.1306
H 1.4576 2.3330 -0.3568
H 2.5115 0.9516 -2.1445
H 1.7593 2.4474 -2.7819
H 0.3203 -0.2970 -2.8232
H 1.1334 0.4171 -4.2482
H -1.3236 0.8360 -4.2804
H -0.3986 2.3752 -4.1836
H -1.7965 0.8855 -1.9883
H -2.2876 2.4204 -2.5643
H -0.9926 2.7976 -0.4195
H -0.1551 3.3968 -1.7668
H -1.5423 -0.2705 -0.4010
H -2.7340 -1.5617 0.0392
H -2.5848 -1.0097 -1.6111
H -2.2933 -3.4775 -1.4675
H -1.9187 -5.5845 -2.1790
H -0.4364 -6.3341 -1.4821
H -0.4329 -5.7010 -3.1972
H 1.7340 -4.7405 -1.8454
H 3.5260 -3.4978 -1.3787
H 3.3684 -2.4421 0.0476
H 3.3579 -1.7550 -1.6448
H 4.3974 0.2437 -2.0203
H 5.7655 -0.3994 -3.0699
H 5.6251 1.3858 -2.7795
H 8.2314 0.6159 -2.0212
H 9.4581 0.3946 0.1300
H 8.2325 -0.1946 2.1934
H 6.1956 -0.8034 3.2930
H 5.0413 -1.6361 2.1998
H 4.7395 0.0836 2.6529
