88
 
P 0.9793 0.0910 0.0359
C 0.4352 -0.0349 -1.8588
C 1.0154 1.0690 -2.7670
C 2.5382 0.9874 -2.8277
C 3.0273 -0.4283 -3.2358
C 2.3817 -1.5343 -2.4157
C 0.8658 -1.3360 -2.5867
C 0.2198 -1.2542 1.1600
C -1.3306 -1.1705 1.1653
C -1.9448 -1.7668 -0.1123
C -1.5181 -3.2219 -0.3252
C 0.0072 -3.4797 -0.1291
C 0.5854 -2.7680 1.0827
C 0.4917 1.8325 0.5311
C -0.6471 2.5595 0.0083
C -1.7247 2.0322 -0.8946
C -0.9152 3.8704 0.4243
C -0.1624 4.4919 1.4016
C -0.5126 5.8917 1.8290
C 0.8674 3.7789 2.0119
C 1.1905 2.4631 1.6079
C 2.2452 1.7374 2.4012
Ag 3.4393 0.0910 0.0359
P 5.8993 0.0910 0.0359
N 6.9533 0.7265 1.3109
C 6.4230 2.0761 1.6245
C 6.6840 -0.0698 2.5402
O 6.2446 1.1740 -1.1728
C 6.3803 0.6795 -2.4213
C 5.6477 1.3133 -3.4316
C 5.6195 0.7972 -4.7288
C 6.3754 -0.3275 -5.0446
C 7.1824 -0.9229 -4.0735
C 7.1969 -0.4510 -2.7418
C 8.1096 -1.1464 -1.7664
C 9.4431 -1.3534 -2.1777
C 10.3754 -1.9549 -1.3321
C 9.9910 -2.3980 -0.0703
C 8.6736 -2.2406 0.3512
C 7.7304 -1.6074 -0.4680
O 6.4844 -1.4527 0.0210
H -0.6180 0.0505 -2.0872
H 0.6681 2.0742 -2.4678
H 0.6238 0.9172 -3.8078
H 2.9270 1.2589 -1.8325
H 2.8839 1.7357 -3.5717
H 4.1070 -0.5592 -3.1200
H 2.7774 -0.5951 -4.3091
H 2.7337 -1.4977 -1.3498
H 2.7122 -2.5086 -2.8357
H 0.1828 -2.1530 -2.3961
H 0.6519 -1.3014 -3.6815
H 0.5583 -0.9513 2.1700
H -1.6604 -0.1210 1.3139
H -1.7324 -1.7592 2.0205
H -1.6454 -1.2147 -0.9774
H -3.0545 -1.6808 -0.0926
H -1.8475 -3.5461 -1.3416
H -2.0738 -3.8250 0.4179
H 0.6858 -3.1585 -0.8841
H 0.1803 -4.5738 -0.1235
H 1.6835 -2.9218 1.1372
H 0.1354 -3.2756 1.9659
H -1.8364 0.9564 -0.8179
H -1.6769 2.4694 -1.9133
H -2.7157 2.3120 -0.4685
H -1.7641 4.4056 0.0075
H -1.3662 6.2983 1.2405
H 0.3548 6.5647 1.6730
H -0.8068 5.8998 2.8987
H 1.4084 4.2531 2.8224
H 2.6289 2.3541 3.2429
H 3.0925 1.4383 1.7658
H 1.7919 0.8363 2.8632
H 6.5475 2.7716 0.7731
H 6.9305 2.5175 2.5100
H 5.3317 2.0482 1.8750
H 6.9684 -1.1314 2.4275
H 5.6020 -0.0538 2.8341
H 7.2590 0.3265 3.4062
H 5.0404 2.1728 -3.1857
H 4.9860 1.2522 -5.4799
H 6.3382 -0.7389 -6.0456
H 7.7720 -1.7862 -4.3574
H 9.7779 -1.0126 -3.1502
H 11.4011 -2.0725 -1.6558
H 10.7154 -2.8611 0.5864
H 8.3907 -2.5902 1.3350
