70
 
P 1.0761 0.0461 -0.0456
C 0.5776 0.4918 -1.7246
C -0.3908 1.4845 -1.9425
C -0.8596 1.7583 -3.2257
C -0.3683 1.0369 -4.3122
C 0.6066 0.0540 -4.1134
C 1.0831 -0.2164 -2.8240
C 0.6505 -1.7029 0.2873
C -0.0308 -2.4868 -0.6754
C -0.3284 -3.8349 -0.4275
C 0.0465 -4.4218 0.7802
C 0.6912 -3.6539 1.7521
C 0.9834 -2.3014 1.5134
C 0.2758 1.1440 1.2239
C 0.6813 2.6123 1.0210
C -0.3320 3.5523 0.7682
C -0.0301 4.8654 0.4079
C 1.2948 5.2913 0.3537
C 2.3238 4.4088 0.7051
C 2.0298 3.0650 1.0331
Ag 3.5361 0.0461 -0.0456
P 5.9961 0.0461 -0.0456
N 6.9864 1.3081 0.7149
C 6.4150 2.5863 0.2113
C 6.6859 1.3245 2.1760
O 6.3419 0.1461 -1.6495
C 6.3996 -0.9989 -2.3347
C 5.5714 -1.0987 -3.4532
C 5.5496 -2.2633 -4.2096
C 6.3814 -3.3282 -3.8681
C 7.2406 -3.2298 -2.7692
C 7.2588 -2.0743 -1.9651
C 8.2018 -2.0313 -0.7907
C 9.5386 -2.4209 -1.0015
C 10.4733 -2.3805 0.0354
C 10.0860 -1.9879 1.3144
C 8.7625 -1.6334 1.5623
C 7.8185 -1.6339 0.5257
O 6.5594 -1.2496 0.8123
H -0.8228 2.0299 -1.1319
H -1.6206 2.5155 -3.3702
H -0.7523 1.2347 -5.3041
H 0.9784 -0.5101 -4.9574
H 1.8180 -0.9979 -2.6787
H -0.3373 -2.0768 -1.6257
H -0.8450 -4.4307 -1.1729
H -0.1674 -5.4692 0.9659
H 0.9675 -4.1130 2.6921
H 1.4718 -1.7278 2.2867
H 0.6498 0.8354 2.2281
H -0.8214 1.0207 1.2059
H -1.3683 3.2488 0.7997
H -0.8323 5.5449 0.1492
H 1.5149 6.3079 0.0423
H 3.3463 4.7725 0.6891
H 2.8522 2.3831 1.2636
H 6.5584 2.6891 -0.8814
H 6.8822 3.4690 0.7025
H 5.3103 2.6708 0.4087
H 6.9857 0.3880 2.6768
H 5.5990 1.4854 2.4054
H 7.2375 2.1478 2.6846
H 4.9262 -0.2689 -3.7200
H 4.8845 -2.3371 -5.0592
H 6.3593 -4.2342 -4.4566
H 7.8723 -4.0744 -2.5272
H 9.8710 -2.7254 -1.9857
H 11.5029 -2.6517 -0.1555
H 10.8122 -1.9552 2.1164
H 8.4782 -1.3342 2.5626
