44
 
C 0.9010 -0.6430 -0.0020
N 0.8148 0.5470 0.6095
C 1.8767 1.2102 1.3494
C -0.4383 0.9930 0.3865
C -1.1026 0.0442 -0.3722
N -0.2492 -0.9724 -0.6086
C -0.4981 -2.1959 -1.3574
Ag 2.6584 -1.8814 -0.0135
P 4.6693 -3.2985 -0.0267
N 5.9498 -3.2649 -1.3088
C 5.3876 -3.4596 -2.6779
C 6.5663 -1.9100 -1.3729
N 5.6845 -2.7180 1.3421
C 5.0033 -2.8953 2.6395
C 6.9661 -3.4585 1.4290
N 4.0359 -4.9588 -0.3197
C 5.1001 -5.9837 -0.2275
C 3.0140 -5.3281 0.6874
H 2.7961 0.5767 1.3410
H 1.5518 1.3796 2.3974
H 2.1018 2.1896 0.8754
H -0.8395 1.9325 0.7439
H -2.1258 0.0935 -0.7218
H -1.5388 -2.2099 -1.7455
H -0.3468 -3.0746 -0.6950
H 0.2094 -2.2607 -2.2104
H 4.9583 -4.4652 -2.8369
H 6.1949 -3.3514 -3.4460
H 4.6269 -2.6852 -2.9534
H 6.9302 -1.5332 -0.4037
H 5.8639 -1.1307 -1.7522
H 7.4537 -1.9328 -2.0452
H 4.0335 -2.3624 2.6764
H 5.6348 -2.4718 3.4566
H 4.8592 -3.9711 2.8901
H 7.6125 -3.3209 0.5457
H 6.8108 -4.5450 1.5562
H 7.5689 -3.0897 2.2872
H 5.9464 -5.7694 -0.9057
H 4.6940 -6.9768 -0.5263
H 5.4785 -6.1153 0.8120
H 2.1282 -4.6670 0.6337
H 3.4175 -5.3302 1.7272
H 2.6506 -6.3691 0.5072
