43
 
P 1.0743 0.0491 0.0456
C 0.3715 0.8042 1.6249
C -1.1362 0.9971 1.8546
C 0.9361 0.0587 2.8460
C 0.5634 1.1460 -1.3764
C -0.9670 1.2787 -1.6047
C 1.1645 2.5328 -1.2700
C 0.5899 -1.7700 0.0000
C -0.9356 -1.9942 -0.0891
C 1.1738 -2.5110 -1.2242
Ag 3.5343 0.0491 0.0456
N 5.6343 0.0491 0.0456
C 6.2763 0.5749 -1.0324
C 7.6690 0.4966 -1.1296
Cl 8.5001 1.1359 -2.5361
C 8.3893 -0.1208 -0.1046
C 7.7129 -0.6426 1.0007
C 6.3178 -0.5517 1.0565
H 0.8175 1.8214 1.6625
H -1.7036 0.0648 1.9283
H -1.6033 1.6846 1.1525
H -1.2896 1.4935 2.8360
H 0.4766 -0.9465 2.9482
H 0.7113 0.6289 3.7766
H 2.0405 -0.0450 2.7822
H 0.9591 0.6606 -2.2937
H -1.4809 1.8540 -0.8313
H -1.4844 0.3171 -1.7358
H -1.1733 1.8556 -2.5292
H 0.7954 3.0432 -0.3575
H 0.8575 3.1318 -2.1566
H 2.2694 2.4519 -1.2557
H 0.9631 -2.2554 0.9211
H -1.3639 -1.6466 -1.0477
H -1.4814 -1.5386 0.7314
H -1.1756 -3.0758 -0.0341
H 0.8068 -2.0809 -2.1852
H 0.8398 -3.5768 -1.2133
H 2.2790 -2.5131 -1.2228
H 5.6978 1.0316 -1.8249
H 9.4671 -0.2042 -0.1689
H 8.2642 -1.1284 1.7952
H 5.7781 -0.9777 1.8915
