98
 
P 1.2750 0.0000 0.0000
N 0.4049 0.7465 -1.3508
C 1.0234 2.0795 -1.6477
C 0.5064 2.7009 -2.9489
C 0.8496 3.1250 -0.5258
C -1.0510 0.6810 -1.3044
C -1.5191 0.0222 -0.0261
C -3.0486 0.0215 -0.0026
C -1.0130 -1.4526 -0.0329
N 0.4775 -1.6672 -0.0595
C 0.7791 -2.5895 1.1218
C 0.0321 -3.9371 1.3087
C 2.2869 -2.8414 1.3560
N 0.4675 0.9931 1.2817
C 1.0349 0.9201 2.6668
C 0.5749 1.9009 3.7178
C 0.9642 -0.4289 3.3526
C -1.0034 0.8390 1.2130
Ag 3.7350 0.0003 -0.0005
C 5.8850 0.0006 -0.0009
N 6.6451 0.2302 -1.0800
C 6.3155 0.3547 -2.5175
C 7.1204 1.0874 -3.4874
C 8.3189 1.9873 -3.2445
C 6.7935 1.0221 -4.8634
C 5.6984 0.2959 -5.3245
C 5.3647 0.1763 -6.7770
C 4.9044 -0.3750 -4.4228
C 5.2137 -0.3765 -3.0738
C 4.3916 -1.2310 -2.2290
C 8.0282 0.0846 -0.6812
C 8.0148 0.3074 0.7819
N 6.7272 -0.2025 1.1632
C 6.4099 -0.6283 2.5104
C 5.1436 -0.4068 3.0526
C 4.1463 0.3704 2.3627
C 4.7836 -0.8456 4.3323
C 5.6888 -1.5234 5.1216
C 5.3135 -1.9814 6.4933
C 6.9610 -1.7642 4.6267
C 7.3448 -1.3274 3.3478
C 8.7437 -1.6810 2.9476
H 2.1215 1.9307 -1.7921
H -0.5786 2.9162 -2.9016
H 0.7248 2.0474 -3.8148
H 1.0200 3.6757 -3.1054
H -0.2268 3.2866 -0.3144
H 1.3092 4.0882 -0.8118
H 1.4017 2.8633 0.3922
H -1.3929 0.0909 -2.1865
H -1.5064 1.6840 -1.3796
H -3.4406 -0.5682 -0.8577
H -3.4274 1.0634 -0.0710
H -3.4078 -0.4276 0.9469
H -1.4420 -2.0214 -0.8834
H -1.5094 -1.8598 0.8723
H 0.2705 -2.1769 1.9759
H 0.2813 -4.6623 0.5233
H -1.0729 -3.8463 1.4172
H 0.3394 -4.3652 2.3029
H 2.6223 -3.7668 0.8553
H 2.4957 -2.9631 2.4503
H 2.9004 -2.0020 0.9925
H 2.0153 1.2620 2.5187
H -0.4774 1.7226 4.0046
H 0.7898 2.9296 3.3905
H 1.2107 1.7103 4.6284
H -0.0836 -0.7797 3.4995
H 1.5097 -0.5610 4.3028
H 1.5749 -1.0079 2.7371
H -1.4243 1.8674 1.1731
H -1.4064 0.3773 2.1346
H 8.6111 2.2504 -2.2286
H 8.0772 2.9886 -3.6501
H 9.2036 1.5852 -3.7931
H 7.4096 1.5423 -5.5917
H 6.0598 0.7579 -7.4146
H 4.3218 0.5140 -6.9521
H 5.4420 -0.8977 -7.0573
H 4.0456 -0.9322 -4.7780
H 3.3091 -1.4229 -2.0935
H 4.1631 -0.3707 -1.7767
H 5.0555 -1.9367 -1.7001
H 8.8130 0.7270 -1.0563
H 8.3251 -0.9650 -0.9034
H 8.0321 1.3996 1.0212
H 8.9326 -0.1684 1.0939
H 4.4437 1.0125 1.5481
H 3.9122 1.1614 3.1010
H 3.3133 -0.2847 2.2090
H 3.7925 -0.6361 4.7211
H 4.2745 -1.6859 6.7548
H 6.0050 -1.5249 7.2317
H 5.3924 -3.0861 6.5364
H 7.6636 -2.2956 5.2523
H 9.2569 -2.3209 3.6875
H 9.3658 -0.7657 2.9420
H 8.7186 -2.2345 1.9827
