32
 
C 1.0240 -0.6530 -0.0550
N 1.0502 0.6199 -0.1059
C 2.2648 1.3846 -0.2326
C -0.2740 1.1774 0.0716
C -1.1937 -0.0488 -0.0598
N -0.2799 -1.1414 0.1395
C -0.6517 -2.5074 0.4131
Ag 2.7802 -1.8697 -0.2955
N 4.4956 -3.0582 -0.5304
C 5.6365 -2.4526 -0.9518
C 6.7649 -3.2138 -1.2614
C 6.7092 -4.6087 -1.1363
C 7.8767 -5.4607 -1.5413
C 5.5323 -5.2066 -0.6617
C 4.4238 -4.4054 -0.3654
H 3.1473 0.6936 -0.3299
H 2.3847 2.0272 0.6682
H 2.1939 2.0410 -1.1252
H -0.5409 1.9551 -0.6747
H -0.3257 1.5935 1.1028
H -1.5652 -0.1354 -1.1076
H -2.0455 -0.0184 0.6507
H -1.7588 -2.5951 0.4791
H -0.2276 -2.8040 1.3963
H -0.2729 -3.1851 -0.3768
H 5.6545 -1.3782 -1.0798
H 7.6595 -2.7214 -1.6221
H 8.7090 -4.8453 -1.9460
H 7.5516 -6.1571 -2.3446
H 8.2505 -6.0492 -0.6793
H 5.4639 -6.2823 -0.5563
H 3.4960 -4.8579 -0.0416
