64
 
C 1.0240 -0.6530 -0.0550
N 0.6409 0.2017 -0.9217
C 1.3620 0.4993 -2.1337
C -0.5814 0.8564 -0.5061
C -1.0488 0.0109 0.6908
N 0.1394 -0.7201 1.0364
C 0.3652 -1.4082 2.2845
Ag 2.7802 -1.8697 -0.2955
P 4.7896 -3.2619 -0.5706
C 5.4801 -3.1368 -2.3321
C 5.8612 -1.6766 -2.6662
C 6.6640 -4.0440 -2.7179
C 4.3053 -3.4792 -3.2698
C 6.0224 -2.6537 0.7309
C 5.3702 -2.8418 2.1063
C 7.3297 -3.4911 0.7466
C 6.4125 -1.1722 0.5904
C 4.2768 -4.9699 -0.3696
C 2.9640 -5.2795 -0.0651
C 2.6005 -6.5989 0.2070
C 3.5457 -7.6634 0.1810
N 3.1851 -9.0199 0.5662
C 1.8442 -9.3917 1.0087
C 4.1472 -10.1176 0.6402
C 4.8701 -7.3202 -0.1884
C 5.2230 -5.9999 -0.4420
H 2.2753 -0.1487 -2.2127
H 1.6514 1.5724 -2.1319
H 0.6977 0.3187 -3.0073
H -1.3671 0.8896 -1.2908
H -0.3113 1.8860 -0.1824
H -1.7915 -0.7494 0.3569
H -1.4721 0.6336 1.5065
H -0.5165 -1.2853 2.9522
H 1.2408 -0.9536 2.7984
H 0.5527 -2.4847 2.1099
H 6.8111 -1.3785 -2.2105
H 5.0475 -0.9718 -2.3802
H 6.0545 -1.5520 -3.7536
H 7.5800 -3.8185 -2.1566
H 6.9293 -3.8792 -3.7846
H 6.4099 -5.1131 -2.6491
H 3.4464 -2.7942 -3.0858
H 3.9653 -4.5243 -3.1243
H 4.6048 -3.3627 -4.3359
H 5.1186 -3.9113 2.2741
H 4.4489 -2.2315 2.1908
H 6.0770 -2.5358 2.9119
H 7.1362 -4.5647 0.9372
H 8.0098 -3.1517 1.5578
H 7.9189 -3.3811 -0.1741
H 5.5159 -0.5245 0.5358
H 7.0738 -0.9848 -0.2616
H 7.0354 -0.8576 1.4564
H 2.2243 -4.4934 0.0029
H 1.5702 -6.7218 0.4635
H 1.0938 -8.5940 0.9929
H 1.8907 -9.7459 2.0605
H 1.4481 -10.2049 0.3673
H 5.1757 -9.8763 0.3454
H 3.8163 -10.9539 -0.0102
H 4.2078 -10.4812 1.6888
H 5.6821 -8.0226 -0.2634
H 6.2598 -5.8020 -0.6609
