27
 
C 0.9010 -0.6430 -0.0020
N -0.3529 -1.1139 -0.0033
C -0.7348 -2.5169 -0.0118
C -1.1590 -0.0327 0.0017
C -0.3588 1.0982 0.0089
N 0.9288 0.6976 0.0070
C 2.1279 1.5234 0.0185
Ag 2.6584 -1.8814 -0.0135
N 4.3750 -3.0911 -0.0247
C 4.2101 -4.4383 0.0507
C 5.3237 -5.2766 0.1545
Cl 5.1160 -7.0113 0.3126
C 6.6021 -4.7127 0.1602
C 6.7498 -3.3269 0.0585
C 5.6097 -2.5221 -0.0301
H 0.1819 -3.1562 -0.0142
H -1.3377 -2.7333 -0.9191
H -1.3396 -2.7431 0.8914
H -2.2409 -0.0606 0.0005
H -0.6910 2.1283 0.0162
H 1.8596 2.6011 0.0288
H 2.7381 1.3078 -0.8836
H 2.7292 1.2919 0.9233
H 3.2094 -4.8504 0.0704
H 7.4768 -5.3441 0.2523
H 7.7359 -2.8813 0.0678
H 5.7046 -1.4457 -0.0815
