53
 
C 0.9010 -0.6430 -0.0020
N -0.3377 -1.0410 0.0926
C -0.8560 -2.2953 -0.3867
C -1.1479 -1.7953 -1.8215
C -0.1521 -2.4257 -2.7700
C -0.5736 -3.8676 -2.9057
C -0.4991 -4.5664 -1.5385
C -1.2464 -3.8123 -0.4225
C -1.0718 0.0861 0.3261
C -0.2090 1.1518 0.3235
N 1.0436 0.6768 0.1190
C 2.3124 1.4330 0.0016
C 2.2278 2.6844 0.8828
C 2.1244 2.2448 2.3486
C 3.4489 1.5908 2.7361
C 3.7335 0.3315 1.8610
C 3.6299 0.6481 0.3407
Ag 2.6584 -1.8814 -0.0135
N 4.3750 -3.0911 -0.0247
C 4.6440 -3.8418 1.0770
C 5.8547 -4.5368 1.1709
C 6.7342 -4.5261 0.0859
F 7.8991 -5.2175 0.1454
C 6.4162 -3.7882 -1.0553
C 5.2466 -3.0236 -1.0667
H -1.4990 -2.2842 0.5027
H -0.9921 -0.7054 -2.0086
H -2.2074 -1.9538 -2.0627
H 0.8965 -2.3244 -2.3852
H -0.2058 -1.9103 -3.7496
H 0.0808 -4.3681 -3.6453
H -1.6185 -3.8713 -3.2908
H 0.5633 -4.6197 -1.2328
H -0.9012 -5.5956 -1.6483
H -1.0949 -4.3829 0.5182
H -2.3631 -3.8363 -0.6359
H -2.1552 0.1355 0.4062
H -0.4934 2.1868 0.4451
H 2.4087 1.7525 -1.0579
H 1.3570 3.2990 0.5872
H 3.1206 3.3307 0.7318
H 1.2917 1.5225 2.5095
H 1.9175 3.1284 2.9851
H 3.4283 1.3288 3.8166
H 4.2437 2.3604 2.5996
H 3.0136 -0.4635 2.1312
H 4.7598 -0.0179 2.1183
H 3.9035 -0.0940 -0.4435
H 4.4568 1.3680 0.1624
H 3.9736 -3.8081 1.9257
H 6.1134 -5.0676 2.0783
H 7.0754 -3.7944 -1.9142
H 4.9866 -2.4438 -1.9430
