89
 
C 0.9010 -0.6430 -0.0020
N 0.5915 0.3684 0.8874
C 1.3369 0.9840 2.0044
C 0.5900 1.0363 3.3372
C -0.6087 0.8480 0.4994
C -1.0391 0.1478 -0.5901
N -0.1098 -0.7717 -0.9087
C -0.2535 -1.7001 -2.0302
C -1.4922 -2.5882 -1.8224
Ag 2.6584 -1.8814 -0.0135
C 4.4159 -3.1199 -0.0250
N 4.4106 -4.4605 -0.0841
C 3.2546 -5.4607 0.0458
C 3.1412 -6.8511 -0.5100
C 4.1163 -7.6582 -1.3487
C 4.4080 -7.0285 -2.7038
C 5.3043 -8.0252 -0.4887
C 1.9824 -7.6646 -0.2680
C 0.9467 -7.2650 0.5127
C 1.0094 -6.0374 1.0600
C 2.0879 -5.1363 0.8182
C 1.8572 -3.8163 1.4197
C 0.6701 -3.2931 0.7013
C 1.8501 -3.8705 2.9294
C 5.8261 -4.8098 -0.2715
C 6.5055 -3.5616 -0.7753
N 5.7312 -2.5079 -0.2317
C 6.2408 -1.1776 0.1637
C 5.3803 -0.0015 0.1244
C 3.9629 0.0196 -0.3964
C 3.2500 1.3780 -0.5233
C 3.7653 -0.6440 -1.8109
C 5.8214 1.2152 0.6642
C 7.0502 1.3639 1.2037
C 7.9394 0.3347 1.1628
C 7.6304 -0.9434 0.6344
C 8.8466 -1.9299 0.6463
C 9.6323 -1.8214 -0.6893
C 9.8839 -1.6988 1.7704
H 1.4910 2.0569 1.7457
H 2.3101 0.4883 2.1678
H -0.3822 1.5679 3.2456
H 1.2089 1.6269 4.0530
H 0.4415 0.0222 3.7511
H -1.1398 1.6670 0.9684
H -1.9695 0.3055 -1.1207
H 0.6586 -2.3130 -2.1602
H -0.3789 -1.1258 -2.9707
H -1.4723 -3.1418 -0.8698
H -1.5715 -3.3282 -2.6418
H -2.4127 -1.9713 -1.7870
H 3.7099 -8.6692 -1.6216
H 4.7355 -5.9852 -2.6082
H 3.4884 -7.0418 -3.3341
H 5.1816 -7.6312 -3.2244
H 5.8194 -7.1749 -0.1217
H 6.0223 -8.6541 -1.0446
H 4.9575 -8.5214 0.4415
H 1.8503 -8.6672 -0.6647
H 0.0818 -7.8999 0.6984
H 0.1540 -5.7672 1.6730
H 2.6280 -3.1710 1.3057
H -0.1879 -3.9905 0.5968
H 1.0786 -3.1512 -0.2964
H 0.1540 -2.4624 1.1845
H 0.9440 -4.3421 3.3357
H 1.9839 -2.8360 3.3210
H 2.7519 -4.4513 3.2399
H 6.1021 -5.4828 -1.0917
H 6.2591 -5.0899 0.7198
H 6.3291 -3.4874 -1.8716
H 7.5877 -3.5556 -0.7450
H 3.5185 -0.3662 0.5404
H 3.7714 2.0424 -1.2296
H 3.1773 1.8637 0.4582
H 2.2152 1.2614 -0.9005
H 4.2237 -0.0296 -2.6089
H 2.6814 -0.7281 -2.0600
H 4.1495 -1.6653 -1.9495
H 5.2178 2.0998 0.7203
H 7.3224 2.3139 1.6416
H 8.8862 0.6047 1.5770
H 8.5334 -2.9568 0.8993
H 9.9697 -0.7732 -0.8563
H 9.0414 -2.1238 -1.5753
H 10.5470 -2.4573 -0.6686
H 10.4162 -0.7308 1.6830
H 10.6988 -2.4527 1.7119
H 9.3884 -1.7966 2.7570
