79
 
C 1.0240 -0.6530 -0.0550
N 0.2658 -0.2491 -1.0257
C 0.5368 -0.4654 -2.4333
C 0.5710 -1.9682 -2.6807
C -0.5263 0.2098 -3.3495
C -0.8238 0.5734 -0.5336
C -0.8564 0.2628 0.9372
N 0.4787 -0.2092 1.2047
C 0.9544 -0.2490 2.5906
C 0.0206 -1.0978 3.4804
C 2.3964 -0.6986 2.7650
Ag 2.7802 -1.8697 -0.2955
C 4.5364 -3.0865 -0.5360
N 4.5003 -4.4067 -0.7081
C 3.3834 -5.3698 -0.5355
C 3.2600 -6.6546 -1.2221
C 4.1613 -7.2756 -2.2674
C 2.1642 -7.5144 -0.9378
C 1.2059 -7.1991 0.0163
C 0.0479 -8.0922 0.3444
C 1.3312 -6.0288 0.7118
C 2.3794 -5.1484 0.4587
C 2.3987 -3.9897 1.3252
C 5.8629 -4.8670 -0.8517
C 6.6541 -3.6495 -1.1902
N 5.8986 -2.5739 -0.6098
C 6.4314 -1.2240 -0.4289
C 5.5787 -0.0980 -0.4369
C 4.1810 -0.1697 -0.7950
C 6.0163 1.1780 -0.1362
C 7.3390 1.4250 0.1361
C 7.7570 2.8205 0.4593
C 8.2514 0.3744 0.0840
C 7.8328 -0.9452 -0.1953
C 8.9306 -1.9748 -0.2028
H 1.5258 -0.0167 -2.6706
H -0.4608 -2.3655 -2.5242
H 1.3129 -2.4567 -1.9684
H 0.8563 -2.1557 -3.7350
H -1.5345 -0.2342 -3.1887
H -0.2700 0.0808 -4.4201
H -0.6075 1.3046 -3.1564
H -1.8178 0.3630 -0.9805
H -0.5425 1.6403 -0.6925
H -1.5418 -0.6047 1.0872
H -1.1944 1.1234 1.5532
H 0.9101 0.7966 2.9703
H 0.0564 -2.1672 3.1878
H -1.0335 -0.7506 3.4174
H 0.3173 -1.0065 4.5482
H 2.5328 -1.7420 2.4590
H 2.6691 -0.6110 3.8404
H 3.0741 -0.0379 2.2043
H 5.0764 -6.8100 -2.5805
H 3.5951 -7.3616 -3.2133
H 4.4596 -8.2917 -1.9190
H 2.0633 -8.4617 -1.4579
H 0.0433 -9.0094 -0.2758
H -0.9001 -7.5347 0.1785
H 0.1016 -8.3795 1.4177
H 0.5909 -5.7978 1.4730
H 1.6462 -3.9692 2.1342
H 1.9853 -3.2778 0.6522
H 3.4160 -3.9066 1.7653
H 6.1464 -5.5445 -1.6380
H 6.1770 -5.2841 0.1322
H 6.6588 -3.4681 -2.2929
H 7.6535 -3.9040 -0.8411
H 4.0701 -0.9457 -1.5803
H 3.8330 0.7014 -1.3750
H 3.6749 -0.1998 0.1835
H 5.2994 1.9920 -0.1250
H 6.8813 3.5087 0.4664
H 8.4713 3.1741 -0.3086
H 8.2170 2.8416 1.4670
H 9.2957 0.5900 0.2750
H 9.9266 -1.5615 0.0519
H 9.0414 -2.3756 -1.2349
H 8.7196 -2.7582 0.5550
