31
 
C -0.3280 -1.0820 0.0030
N 0.9516 -0.6642 -0.0026
H 1.8094 -1.2585 0.0022
C 0.8856 0.6804 -0.0154
Cl 2.2766 1.7475 -0.0280
C -0.4416 1.0554 -0.0182
Cl -1.0777 2.6893 -0.0386
N -1.1979 -0.0554 -0.0050
Ag -0.9444 -3.1417 0.0167
C -1.5608 -5.2014 0.0303
N -0.8227 -6.3574 0.0279
C 0.6240 -6.5353 0.0189
C -1.7219 -7.3855 0.0354
C -1.4378 -8.8722 0.0358
C -2.9898 -6.8593 0.0429
C -4.2783 -7.6484 0.0505
N -2.8869 -5.5114 0.0418
C -4.0024 -4.5708 0.0518
H -2.2400 -0.1160 -0.0056
H 1.1493 -5.5613 0.0139
H 0.9153 -7.1222 -0.8807
H 0.9268 -7.1183 0.9176
H -0.3601 -9.1210 0.0302
H -1.9088 -9.3409 -0.8573
H -1.8987 -9.3383 0.9355
H -4.1006 -8.7447 0.0486
H -4.8750 -7.4075 -0.8532
H -4.8654 -7.4081 0.9604
H -4.9755 -5.1099 0.0608
H -3.9704 -3.9386 -0.8572
H -3.9540 -3.9418 0.9625
