25
 
C -0.3280 -1.0820 0.0030
N 0.9508 -0.6636 0.0427
H 1.8076 -1.2574 0.0913
C 0.8852 0.6807 0.0141
Cl 2.2753 1.7483 0.0508
C -0.4408 1.0549 -0.0480
Cl -1.0756 2.6880 -0.1171
N -1.1970 -0.0561 -0.0506
Ag -0.9444 -3.1417 0.0167
C -1.5608 -5.2014 0.0303
N -0.7887 -6.3237 0.0431
C 0.6603 -6.4748 0.0503
C -1.6495 -7.3661 0.0436
Cl -1.1995 -9.0671 0.0569
C -2.9317 -6.8820 0.0313
Cl -4.3979 -7.8556 0.0256
N -2.8747 -5.5350 0.0250
C -4.0086 -4.6172 0.0189
H -2.2381 -0.1173 -0.0945
H 1.1711 -5.4932 0.0447
H 0.9676 -7.0642 -0.8429
H 0.9618 -7.0525 0.9529
H -4.9691 -5.1775 0.0178
H -3.9759 -3.9810 -0.8883
H -3.9812 -3.9818 0.9272
