46
 
N -1.4121 -0.3410 -0.0220
C -0.6727 0.7994 0.1559
C 0.7315 0.7593 0.0918
F 1.4777 1.8941 0.1210
C 1.3727 -0.4641 -0.0098
C 0.6149 -1.6312 -0.0376
C -0.7845 -1.5485 -0.1118
Ag -3.4430 -0.2708 -0.2446
P -5.8389 -0.2035 -0.5082
O -6.8157 1.1739 -0.6955
C -6.2316 1.8492 -1.8143
C -6.8756 3.2142 -2.1971
C -4.7250 2.1268 -1.6537
O -6.0828 -1.1907 -1.9351
C -5.5985 -2.5077 -1.7525
C -6.3446 -3.1356 -0.6093
C -5.8885 -3.3587 -2.9994
O -6.6231 -0.8798 0.8761
C -6.2232 -0.3213 2.0752
C -6.7026 1.1109 2.1050
C -6.8976 -1.0561 3.2387
H -1.1475 1.7541 0.3044
H 2.4552 -0.5001 -0.0555
H 1.1170 -2.5844 -0.0363
H -1.3662 -2.4472 -0.2514
H -6.3665 1.1598 -2.6670
H -6.7429 3.9848 -1.4106
H -7.9466 3.1702 -2.3978
H -6.4405 3.5829 -3.1631
H -4.5486 2.8669 -0.8572
H -4.3027 2.4859 -2.6059
H -4.1830 1.2088 -1.4019
H -4.4909 -2.5155 -1.5974
H -7.4367 -3.0100 -0.7773
H -6.0133 -2.6882 0.2737
H -6.0273 -4.1395 -0.3905
H -6.9760 -3.3556 -3.2280
H -5.5741 -4.4118 -2.8164
H -5.3395 -2.9879 -3.8901
H -5.1312 -0.3935 2.2273
H -7.7991 1.1561 1.8993
H -6.1446 1.7184 1.3900
H -6.4450 1.5961 3.0480
H -8.0038 -1.0255 3.1352
H -6.6279 -0.5447 4.1920
H -6.5652 -2.1100 3.3063
