24
 
N -1.4721 -0.1055 0.0124
C -1.0134 0.0814 1.2967
C 0.3418 0.3804 1.5506
C 1.2499 0.4278 0.4990
C 0.8002 0.1744 -0.7940
C -0.5759 -0.0619 -1.0231
Ag -3.5217 -0.1037 -0.3501
N -5.5711 -0.0966 -0.6696
C -5.6956 1.4004 -0.5905
N -6.0508 -0.4995 -1.8771
C -7.3230 -0.6894 -1.8248
C -7.7712 -0.5177 -0.5209
C -6.6265 -0.3446 0.2549
H -1.6973 0.0592 2.1263
H 0.6934 0.5950 2.5544
H 2.2948 0.6664 0.6896
H 1.5178 0.1881 -1.6088
H -0.9123 -0.1557 -2.0451
H -5.0531 1.9144 -1.3397
H -5.4584 1.7855 0.4213
H -6.7415 1.7750 -0.8311
H -7.9375 -0.9420 -2.6849
H -8.7891 -0.4479 -0.1607
H -6.6346 -0.1527 1.3092
