43
 
N -0.6440 -1.2471 -0.0601
C 0.6904 -1.1390 -0.0187
C 1.4701 -2.4008 -0.1434
C 1.3028 0.1065 0.2210
C 0.4997 1.2298 0.4519
C -0.8888 1.1082 0.4117
C -1.4544 -0.1408 0.1462
Ag -1.5809 -3.1012 -0.2799
P -2.6466 -5.3040 -0.5288
N -3.7816 -5.7248 0.8193
C -3.3836 -5.8365 2.2260
C -4.9241 -4.7738 0.7686
N -3.8630 -5.1509 -1.8462
C -3.3691 -4.7555 -3.1929
C -4.8913 -6.1497 -1.9117
N -1.3297 -6.5447 -0.5944
C -1.7508 -7.9315 -0.7471
C -0.1883 -6.2808 -1.5044
H 0.7271 -3.2662 -0.2782
H 2.0620 -2.5160 0.7964
H 2.1913 -2.3220 -0.9861
H 2.3797 0.2056 0.2665
H 0.9469 2.1909 0.6777
H -1.5193 1.9692 0.5984
H -2.5305 -0.2505 0.1196
H -2.7801 -6.7066 2.4355
H -4.2812 -6.0526 2.8422
H -3.0182 -4.9037 2.6503
H -5.3058 -4.5979 -0.2633
H -4.6710 -3.8116 1.2305
H -5.7712 -5.0968 1.4078
H -2.7396 -3.8666 -3.2017
H -4.1944 -4.4415 -3.8571
H -2.9045 -5.5664 -3.7469
H -5.4224 -6.1685 -0.9429
H -4.4310 -7.1126 -2.1876
H -5.6247 -5.8352 -2.6924
H -2.5645 -8.1749 -0.0387
H -0.8816 -8.5991 -0.5601
H -1.9902 -8.1632 -1.7900
H 0.3625 -5.3676 -1.2913
H -0.4517 -6.3558 -2.5587
H 0.6026 -7.0457 -1.3881
