28
 
P 0.9711 -0.0548 0.0785
O -0.2729 -0.9935 -0.5898
C 0.2118 -1.3680 -1.8860
O 0.5183 -0.2418 1.7100
C 1.1257 0.7882 2.4511
O 0.6548 1.1942 -1.0529
C 1.3022 2.3729 -0.6882
Ag 3.4311 -0.0548 0.0785
O 5.4811 -0.0548 0.0785
C 5.8487 1.1964 -0.3913
C 5.3689 1.3866 -1.8280
C 5.2520 2.2201 0.5530
H -0.1454 -2.3740 -2.1761
H 1.3309 -1.4447 -1.9871
H -0.1320 -0.6320 -2.6461
H 0.6775 0.8037 3.4656
H 0.9188 1.7978 2.0470
H 2.2168 0.6078 2.5544
H 1.1873 3.0844 -1.5324
H 2.3847 2.2074 -0.5570
H 0.8057 2.8525 0.1753
H 6.9593 1.2723 -0.3821
H 4.2625 1.3371 -1.8831
H 5.7978 0.5956 -2.4800
H 5.7084 2.3736 -2.2103
H 4.1509 2.0323 0.6301
H 5.5015 3.2457 0.2018
H 5.6965 2.0843 1.5620
