58
 
N -1.4040 -0.0929 -0.0536
C -0.6749 0.9128 -0.6374
C 0.7176 0.8559 -0.7331
C 1.3941 -0.0915 -0.0332
Cl 3.1438 -0.2033 -0.1775
C 0.6653 -0.9500 0.7779
C -0.7308 -1.0242 0.6692
Ag -3.4709 -0.1717 -0.2714
P -5.8996 -0.2843 -0.5192
C -6.6057 1.3749 -0.7148
C -6.0432 2.0596 -1.9316
C -8.0887 1.3804 -0.7280
C -6.1493 2.2253 0.4565
C -6.3092 -1.2711 -2.0459
C -5.7566 -2.6651 -1.9279
C -7.8040 -1.4169 -2.2089
C -5.7031 -0.6623 -3.2669
C -6.6026 -1.1376 0.9175
C -5.7908 -1.6015 1.9286
C -6.2733 -2.4066 2.9249
C -7.6150 -2.5504 3.1246
N -8.1201 -3.3790 4.1772
C -7.3833 -3.5779 5.4173
C -9.3752 -4.0824 4.0136
C -8.4464 -1.8484 2.2538
C -7.9575 -1.3109 1.0887
H -1.1523 1.7872 -1.0215
H 1.2803 1.5336 -1.3283
H 1.1826 -1.5677 1.4580
H -1.2633 -1.8304 1.1189
H -6.3972 1.6887 -2.7645
H -4.9604 2.0594 -1.9500
H -6.4458 3.0412 -2.0818
H -8.4553 0.9998 -1.5462
H -8.5036 2.3537 -0.8631
H -8.5136 0.8860 0.1140
H -5.0678 2.2647 0.5238
H -6.4629 1.8688 1.3821
H -6.5523 3.2342 0.3832
H -6.2064 -3.1793 -1.1002
H -4.6757 -2.6242 -1.8061
H -5.9991 -3.2531 -2.8129
H -8.2742 -1.8381 -1.3311
H -8.0799 -1.9397 -3.1009
H -8.2444 -0.5770 -2.4575
H -4.6381 -0.5338 -3.1594
H -6.1276 0.1825 -3.5224
H -5.9620 -1.1803 -4.1663
H -4.7720 -1.3531 1.9428
H -5.5873 -2.8655 3.5360
H -6.4643 -3.0455 5.4698
H -7.1115 -4.6226 5.5587
H -7.9623 -3.2317 6.2690
H -9.8367 -3.8953 3.0675
H -10.0903 -3.7719 4.7726
H -9.2378 -5.1620 4.0643
H -9.4637 -1.7362 2.4427
H -8.6469 -1.0372 0.3890
