27
 
N -1.3930 -0.0939 -0.0360
C -0.6330 -1.2103 0.3180
C 0.6877 -1.0648 0.7546
F 1.3305 -2.0704 1.3441
C 1.3012 0.0893 0.5816
C 0.6365 1.1390 -0.0479
C -0.7589 1.0853 -0.2191
Ag -3.4743 -0.2068 -0.2743
N -5.5590 -0.2940 -0.5073
C -6.2348 -1.5295 -0.4924
C -7.5594 -1.6171 -0.9418
C -8.2723 -0.5130 -1.1073
O -9.5933 -0.5855 -1.5586
C -10.1819 -1.8340 -1.8429
C -7.6742 0.7211 -0.8193
C -6.2803 0.8233 -0.6760
H -1.0475 -2.1669 0.2542
H 2.2777 0.2008 0.9124
H 1.1748 1.9636 -0.3833
H -1.2966 1.9404 -0.4761
H -5.7505 -2.3972 -0.1697
H -8.0004 -2.5333 -1.1417
H -11.1955 -1.7047 -2.1737
H -10.1759 -2.4499 -0.9584
H -9.6199 -2.3304 -2.6170
H -8.2737 1.5675 -0.7305
H -5.8097 1.7505 -0.6775
