67
 
N -0.6790 1.1930 0.0010
C 0.6675 1.2328 -0.0955
C 1.3221 2.5727 -0.1331
C 1.4050 0.0410 -0.0809
C 0.7265 -1.1857 -0.0008
C 1.4792 -2.4844 0.0001
C -0.6737 -1.1920 0.0784
C -1.3696 0.0261 0.0943
C -2.8658 0.0665 0.1268
Ag -1.6914 3.0329 0.0055
P -2.8773 5.1881 0.0107
C -2.4616 6.2009 1.5583
C -0.9492 6.5224 1.6349
C -3.2498 7.5012 1.7951
C -2.7377 5.2643 2.7504
C -2.2782 6.1111 -1.5301
C -2.6705 5.2135 -2.7200
C -3.0429 7.4450 -1.7539
C -0.7730 6.3821 -1.6342
C -4.6162 4.7957 0.1334
C -5.0510 3.4807 0.1364
C -6.4256 3.2094 -0.0306
C -7.3866 4.2578 -0.2226
N -8.7914 4.0017 -0.5249
C -9.3465 2.6603 -0.6495
C -9.7672 5.0578 -0.8143
C -6.8911 5.5788 -0.1601
C -5.5422 5.8339 0.0117
H 0.5375 3.3790 -0.1143
H 1.9423 2.6598 -1.0472
H 1.9768 2.6753 0.7610
H 2.4868 0.0692 -0.1263
H 2.5766 -2.3192 -0.0456
H 1.1794 -3.0922 -0.8797
H 1.2492 -3.0510 0.9272
H -1.2111 -2.1325 0.1215
H -3.2986 -0.9577 0.1443
H -3.2356 0.5790 -0.7881
H -3.2121 0.6281 1.0156
H -0.6649 7.3564 0.9857
H -0.3294 5.6218 1.4211
H -0.6676 6.8957 2.6431
H -3.0470 8.2738 1.0427
H -2.9423 7.9522 2.7637
H -4.3328 7.3125 1.8784
H -2.1337 4.3331 2.6636
H -3.8096 4.9891 2.8052
H -2.4585 5.7536 3.7106
H -3.7673 5.0210 -2.7248
H -2.1398 4.2415 -2.6765
H -2.4240 5.7079 -3.6871
H -4.1381 7.2914 -1.8115
H -2.7682 7.9077 -2.7255
H -2.8161 8.2078 -0.9984
H -0.1905 5.4582 -1.4531
H -0.4378 7.1993 -0.9906
H -0.5364 6.7694 -2.6503
H -4.3003 2.6838 0.2038
H -6.6801 2.1685 -0.0548
H -8.6396 1.8422 -0.4729
H -9.7422 2.5196 -1.6792
H -10.1795 2.5341 0.0728
H -9.4001 6.0906 -0.7752
H -10.6130 4.9996 -0.0979
H -10.1671 4.9255 -1.8439
H -7.4926 6.4596 -0.2876
H -5.2361 6.8659 -0.0245
