99
 
P 0.9187 -0.0058 0.0580
C 0.2586 -0.8373 1.5954
C 0.6151 -2.3345 1.6900
C 0.5688 -2.6332 3.1737
C 1.3541 -1.4821 3.7450
C 1.0117 -0.2873 2.8392
C 0.3456 1.7433 0.1651
C 0.7924 2.6139 1.3276
C 0.2607 3.9676 0.8651
C 0.6887 4.0386 -0.5951
C 0.7533 2.5750 -1.0537
C 0.3396 -0.9717 -1.4102
C 0.7549 -2.4272 -1.5904
C -0.1994 -2.8783 -2.6903
C -1.5375 -2.3102 -2.2257
C -1.1960 -0.9903 -1.5183
Ag 3.3787 -0.0058 0.0580
P 5.8387 -0.0058 0.0580
C 6.9454 0.4764 1.5764
C 6.8786 2.0122 2.0493
C 5.6506 2.4011 2.8905
C 5.5876 1.5356 4.1441
C 5.5843 0.0505 3.7498
C 6.8193 -0.3167 2.9054
C 6.0842 -1.9169 -0.0852
C 5.4992 -2.2809 -1.4345
C 6.4975 -1.8189 -2.5567
C 7.6692 -2.7918 -2.5794
C 8.3907 -2.7407 -1.2231
C 7.4101 -2.7989 -0.0191
C 6.2192 1.2331 -1.2995
C 7.4515 2.0103 -1.4124
C 8.6448 2.1726 -0.4905
C 7.6978 2.7706 -2.5588
C 6.8314 2.8135 -3.6215
C 7.2068 3.6240 -4.8300
C 5.6382 2.1064 -3.5506
C 5.2974 1.3283 -2.4154
C 3.9302 0.6465 -2.4780
H -0.8400 -0.7552 1.7430
H 1.6605 -2.5025 1.3311
H -0.1057 -3.0056 1.1887
H 0.9915 -3.6285 3.4465
H -0.4843 -2.5748 3.5174
H 2.4318 -1.7288 3.5910
H 1.1973 -1.3161 4.8321
H 1.9957 0.1591 2.5627
H 0.4004 0.4646 3.3683
H -0.7695 1.7149 0.1828
H 1.9020 2.6306 1.3957
H 0.3450 2.3355 2.2977
H 0.5764 4.8418 1.4713
H -0.8534 3.9203 0.8899
H 1.7240 4.4494 -0.6350
H 0.0267 4.6903 -1.2040
H 1.8153 2.3953 -1.2668
H 0.1701 2.3375 -1.9694
H 0.7153 -0.4519 -2.3239
H 0.5121 -3.0429 -0.7304
H 1.8302 -2.5625 -1.8260
H -0.2297 -3.9820 -2.8321
H 0.0915 -2.3932 -3.6451
H -1.9204 -2.9997 -1.4384
H -2.3201 -2.2411 -3.0126
H -1.6870 -1.0207 -0.5216
H -1.5565 -0.0827 -2.0525
H 7.9444 0.1469 1.2600
H 6.9348 2.7625 1.2427
H 7.7572 2.2103 2.7153
H 4.7288 2.2927 2.2868
H 5.7281 3.4692 3.2159
H 4.6792 1.7892 4.7360
H 6.4692 1.7606 4.7918
H 4.6702 -0.1847 3.1737
H 5.5985 -0.5443 4.6890
H 6.8819 -1.4034 2.7244
H 7.7085 -0.0522 3.5370
H 5.4626 -2.3188 0.7424
H 4.4949 -1.8721 -1.3894
H 5.3097 -3.3664 -1.5599
H 6.9459 -0.8227 -2.3857
H 6.0167 -1.7909 -3.5515
H 8.3920 -2.5449 -3.3922
H 7.2595 -3.8020 -2.8008
H 8.9767 -1.8069 -1.1579
H 9.1093 -3.5995 -1.1892
H 7.9673 -2.7098 0.9337
H 7.0439 -3.8580 -0.0370
H 8.7179 1.7249 0.4634
H 8.7506 3.2559 -0.2499
H 9.5603 1.8074 -0.9905
H 8.6207 3.3407 -2.6373
H 8.2028 4.1091 -4.7057
H 6.4580 4.4230 -4.9931
H 7.2689 2.9649 -5.7199
H 4.9756 2.1652 -4.4068
H 3.4395 0.8658 -3.4546
H 3.2686 1.0264 -1.7207
H 3.9332 -0.4141 -2.4945
