43
 
N 1.0735 -0.0571 0.0366
C 0.2845 0.7579 1.0423
C 0.7023 -1.4231 0.4244
C 0.6397 0.5580 -1.2075
C 0.5204 1.9822 -1.2715
C -0.6028 2.5093 -1.8953
C -1.4372 1.6857 -2.6457
C -1.0939 0.3476 -2.8594
C -0.0529 -0.2264 -2.1354
Ag 3.1735 -0.0571 0.0366
P 5.6335 -0.0571 0.0366
C 6.5566 -1.5754 0.4366
C 6.0954 0.2827 -1.6864
C 6.1737 1.1775 1.2855
C 5.6614 0.7800 2.6750
C 7.7176 1.2454 1.2990
C 5.6214 2.5568 0.8971
H -0.7647 0.3681 1.1736
H -0.4673 1.5006 0.6767
H 0.8569 1.4644 1.6621
H -0.4042 -1.5886 0.3612
H 0.9884 -1.5991 1.4917
H 1.1903 -2.1905 -0.1950
H 1.0550 2.6334 -0.5815
H -0.8763 3.5391 -1.6973
H -2.3580 2.0813 -3.0466
H -1.7115 -0.2803 -3.4807
H 0.0929 -1.2968 -2.1892
H 6.1955 -2.3488 -0.2819
H 6.2418 -1.9380 1.4383
H 7.6503 -1.5014 0.3463
H 5.7195 -0.5308 -2.3407
H 7.2058 0.2949 -1.7523
H 5.6978 1.2593 -2.0192
H 6.0582 -0.2114 2.9763
H 4.5519 0.7353 2.6784
H 5.9908 1.5222 3.4336
H 8.1658 0.2734 1.5900
H 8.0780 1.9973 2.0313
H 8.1123 1.5201 0.2963
H 4.5118 2.5416 0.8646
H 5.9989 2.8616 -0.1036
H 5.9485 3.3258 1.6303
