90
 
P 1.0675 0.0224 0.0703
C -0.1495 -0.7360 1.5473
C 0.1398 -2.1891 2.1806
C 1.3427 -2.2476 3.1388
C 1.0109 -1.4670 4.4020
C 0.6500 -0.0281 4.0299
C -0.4797 0.0125 2.9388
C 0.3575 1.8205 0.0763
C 0.7773 2.4936 1.3700
C 2.2186 2.9267 1.3060
C 2.3267 4.1142 0.3767
C 1.8675 3.7074 -1.0332
C 0.5008 2.9756 -1.0107
C 0.6570 -1.1964 -1.3190
C 1.2926 -0.9310 -2.6999
C 2.7979 -1.2518 -2.7076
C 3.1148 -2.6656 -2.1831
C 2.4842 -2.8639 -0.8071
C 0.9786 -2.6526 -1.0036
Ag 3.5275 0.0224 0.0703
C 5.6775 0.0224 0.0703
N 6.4788 0.2417 -1.0230
C 6.0363 0.5752 -2.3855
C 6.5552 1.9487 -2.8072
C 6.4440 -0.5093 -3.4045
C 7.7537 0.1013 -0.5700
C 7.7240 -0.2244 0.7547
C 8.9013 -0.3717 1.5082
C 10.1313 -0.1894 0.8618
C 10.1702 0.1018 -0.5121
C 8.9794 0.2459 -1.2447
N 6.4416 -0.3574 1.1580
C 6.0602 -0.7431 2.5373
C 6.0665 0.5330 3.2864
C 5.1195 1.4623 2.8729
C 5.2465 2.7848 3.2869
C 6.2888 3.1642 4.1387
C 7.1826 2.2077 4.6310
C 7.0741 0.8780 4.2124
H -1.1385 -0.7765 1.0483
H 0.1906 -3.1109 1.6315
H -0.7547 -2.4913 2.7785
H 2.2594 -1.8677 2.6411
H 1.5238 -3.3024 3.4529
H 1.8568 -1.5078 5.1267
H 0.1419 -1.9557 4.9054
H 1.5700 0.4867 3.6922
H 0.3054 0.4642 4.9701
H -0.9275 1.0177 2.8352
H -1.3410 -0.5040 3.4273
H -0.7388 1.6238 0.0847
H 0.7746 1.8178 2.1764
H 0.0991 3.3433 1.6207
H 2.8486 2.0878 0.9455
H 2.5163 3.2072 2.3304
H 3.3747 4.4800 0.3596
H 1.6871 4.9266 0.7937
H 2.6157 3.0348 -1.4865
H 1.8092 4.6419 -1.6442
H 0.1793 2.7019 -2.0372
H -0.2248 3.7750 -0.7008
H -0.4456 -1.1214 -1.4448
H 1.0937 0.1035 -3.0430
H 0.8057 -1.6199 -3.4321
H 3.2732 -0.5322 -2.0397
H 3.2035 -1.1455 -3.7364
H 4.2101 -2.8285 -2.1233
H 2.6971 -3.4309 -2.8801
H 2.9314 -2.1523 -0.0540
H 2.6707 -3.9034 -0.4604
H 0.3753 -2.9530 -0.2115
H 0.5965 -3.3334 -1.7960
H 4.9406 0.6514 -2.3851
H 7.6518 1.9615 -2.9362
H 6.2827 2.6963 -2.0346
H 6.1003 2.2395 -3.7761
H 7.5431 -0.5955 -3.5141
H 6.0314 -0.2633 -4.4063
H 6.0541 -1.5046 -3.1058
H 8.8923 -0.5994 2.5635
H 11.0546 -0.2784 1.4214
H 11.1258 0.2247 -1.0054
H 9.0537 0.4726 -2.2923
H 6.8281 -1.4356 2.9561
H 5.0929 -1.2868 2.5824
H 4.3369 1.1271 2.1712
H 4.5695 3.5281 2.9128
H 6.4063 4.2045 4.4058
H 7.9865 2.5100 5.2926
H 7.8162 0.1613 4.5514
