75
 
P 1.0793 -0.0122 0.0597
C 0.7497 0.6697 -1.8755
C -0.5952 0.8411 -2.7712
C -1.5363 1.7879 -2.0794
C -0.9139 3.1841 -2.1110
C 0.5590 3.2050 -1.6495
C 1.4183 2.0359 -2.1766
C 0.4531 -1.8327 0.3751
C -1.0696 -1.9680 0.1817
C -1.4145 -1.6602 -1.2425
C -0.6328 -2.5380 -2.2593
C 0.8478 -2.8117 -1.8823
C 1.0185 -3.0289 -0.3973
C 0.5324 1.3845 1.3265
C -0.9968 1.8397 1.5048
C -1.9447 0.8828 2.2689
C -1.2948 0.3711 3.5772
C 0.2314 0.0996 3.5346
C 1.0008 1.1951 2.7893
Ag 3.5393 -0.0122 0.0597
N 5.6393 -0.0122 0.0597
C 6.2627 1.1765 0.2857
C 7.6562 1.2532 0.3131
C 8.4063 0.0958 0.1233
C 7.7550 -1.1231 -0.0911
C 8.4829 -2.2990 -0.2526
C 7.8224 -3.5063 -0.4574
C 6.4119 -3.5653 -0.5269
C 5.6870 -4.8517 -0.7661
O 4.4674 -4.8384 -0.8471
C 6.3698 -6.1882 -0.9239
C 5.6783 -2.3655 -0.3647
C 6.3441 -1.1576 -0.1338
H 1.3371 -0.0184 -2.5048
H -1.1640 -0.0466 -3.0800
H -0.3973 1.2260 -3.8033
H -1.6812 1.3539 -1.0975
H -2.5469 1.8143 -2.5394
H -1.5150 3.8726 -1.4777
H -0.9715 3.5323 -3.1626
H 0.5339 3.1529 -0.5850
H 1.0186 4.1787 -1.9105
H 2.4627 2.0570 -1.8135
H 1.4966 2.1757 -3.2886
H 0.6483 -2.0739 1.4308
H -1.4917 -1.2643 0.8322
H -1.5202 -2.9340 0.4711
H -1.0927 -0.6800 -1.1928
H -2.4917 -1.5497 -1.4915
H -0.6446 -2.1185 -3.2911
H -1.1799 -3.4938 -2.2911
H 1.5315 -1.9903 -2.1131
H 1.2139 -3.6861 -2.4550
H 2.0698 -3.2170 -0.1198
H 0.4395 -3.9449 -0.1059
H 1.1181 2.2643 1.0518
H -1.5002 2.2435 0.6315
H -0.9919 2.7443 2.1462
H -2.4208 0.1608 1.6208
H -2.8986 1.3822 2.5460
H -1.8382 -0.5095 3.9947
H -1.4274 1.2036 4.2929
H 0.4868 -0.8660 3.0955
H 0.5933 0.0698 4.5886
H 2.0953 1.0380 2.8375
H 0.8021 2.1489 3.3435
H 5.6710 2.0674 0.4470
H 8.1517 2.1992 0.4882
H 9.4884 0.1494 0.1499
H 9.5657 -2.2882 -0.2111
H 8.4507 -4.3719 -0.5618
H 7.4666 -6.1681 -0.8224
H 6.1430 -6.5959 -1.9301
H 5.9903 -6.8880 -0.1513
H 4.5910 -2.3532 -0.4118
