72
 
P 1.0112 0.0714 0.0692
C 0.5207 -0.7419 -1.6731
C 1.1782 -0.0026 -2.8784
C 2.7114 -0.2272 -2.9827
C 3.0845 -1.7160 -3.0997
C 2.4240 -2.5131 -1.9756
C 0.8969 -2.2539 -2.0390
C 0.3410 -1.0148 1.5352
C -1.2254 -1.1536 1.5446
C -1.7762 -2.1719 0.5488
C -1.1254 -3.5326 0.7851
C 0.4157 -3.4571 1.0192
C 0.8571 -2.3867 1.9770
C 0.3791 1.9012 0.0258
C -1.1160 2.4875 -0.1764
C -2.1619 2.3959 0.9855
C -1.5558 2.7238 2.3663
C -0.1940 2.0823 2.5110
C 0.8036 2.4868 1.3816
Ag 3.4712 0.0714 0.0692
N 5.5712 0.0714 0.0692
C 6.4060 0.2312 -0.9660
N 7.6960 0.1767 -0.5565
C 8.8848 0.2670 -1.3739
C 8.7930 0.4338 -2.7715
C 9.9456 0.4657 -3.5603
C 11.2035 0.3367 -2.9704
C 11.3128 0.1884 -1.5883
C 10.1662 0.1555 -0.7942
C 7.6422 -0.0131 0.7845
C 6.3254 -0.0789 1.1649
H -0.5678 -0.6523 -1.8103
H 0.9356 1.0705 -2.8601
H 0.7399 -0.4073 -3.8264
H 3.1997 0.1993 -2.1050
H 3.1108 0.2933 -3.8777
H 4.1907 -1.8505 -3.0856
H 2.7251 -2.1226 -4.0748
H 2.8344 -2.2108 -0.9886
H 2.6673 -3.5921 -2.1286
H 0.2837 -3.0337 -1.5764
H 0.5866 -2.5088 -3.0810
H 0.7063 -0.4613 2.4164
H -1.7077 -0.2315 1.3229
H -1.5738 -1.4533 2.5592
H -1.6075 -1.8427 -0.4788
H -2.8884 -2.2502 0.6443
H -1.3571 -4.1819 -0.0888
H -1.6080 -3.9816 1.6780
H 0.9933 -3.1403 0.1935
H 0.8000 -4.4511 1.2985
H 1.9596 -2.3539 2.0929
H 0.4273 -2.6268 2.9841
H 0.9506 2.3378 -0.8175
H -1.6040 2.1938 -1.1292
H -0.9744 3.5926 -0.2511
H -2.6513 1.4234 0.9676
H -3.0420 3.0644 0.8381
H -2.2343 2.3347 3.1693
H -1.4226 3.8092 2.5226
H -0.4723 1.0638 2.4854
H 0.2445 2.2533 3.5112
H 1.8264 2.1226 1.6018
H 0.8461 3.5956 1.3398
H 6.0653 0.3757 -1.9809
H 7.8388 0.5282 -3.2678
H 9.8609 0.5820 -4.6327
H 12.0939 0.3500 -3.5838
H 12.2870 0.0893 -1.1279
H 10.2975 0.0300 0.2695
H 8.4820 -0.1077 1.4565
H 5.9392 -0.2268 2.1646
