46
 
P 1.0117 -0.0655 0.0746
C 0.2370 1.5498 0.1956
C -1.1303 1.8245 0.1118
C -1.5795 3.1451 0.2949
C -0.6718 4.1788 0.5698
C 0.6898 3.9021 0.6625
C 1.1391 2.5974 0.4738
C 0.5803 -0.5042 -1.6198
C 0.9682 0.2400 -2.7316
C 0.5856 -0.1768 -4.0163
C -0.1778 -1.3384 -4.1946
C -0.5529 -2.0996 -3.0894
C -0.1747 -1.6876 -1.8087
C 0.5663 -1.0648 1.4898
C -0.7865 -1.3624 1.7229
C -1.1624 -2.1402 2.8178
C -0.1873 -2.6281 3.6886
C 1.1703 -2.3577 3.4465
C 1.5574 -1.5789 2.3350
Ag 3.4717 -0.0655 0.0746
N 5.5717 -0.0655 0.0746
C 6.2093 0.7853 -0.7726
C 7.6008 0.7586 -0.8812
C 8.3253 -0.1647 -0.1239
Cl 10.0697 -0.2555 -0.2866
C 7.6518 -1.0257 0.7491
C 6.2575 -0.9519 0.8444
H -1.8391 1.0357 -0.0834
H -2.6335 3.3727 0.2342
H -1.0189 5.1939 0.7184
H 1.3979 4.6930 0.8884
H 2.2035 2.4011 0.5684
H 1.5613 1.1314 -2.6011
H 0.8809 0.4014 -4.8783
H -0.4753 -1.6525 -5.1879
H -1.1359 -3.0063 -3.2263
H -0.4771 -2.3041 -0.9684
H -1.5537 -1.0018 1.0514
H -2.2102 -2.3623 2.9886
H -0.4903 -3.2227 4.5436
H 1.9109 -2.7590 4.1254
H 2.6143 -1.3645 2.1067
H 5.6298 1.4752 -1.3719
H 8.1057 1.4335 -1.5610
H 8.2002 -1.7549 1.3313
H 5.7190 -1.6294 1.4935
