69
 
P 1.0446 0.0605 0.0660
C 0.3093 1.6232 -0.4644
C -1.0539 1.8916 -0.6545
C -1.4555 3.1611 -1.1057
C -0.5095 4.1652 -1.3477
C 0.8409 3.9160 -1.1177
C 1.2447 2.6557 -0.6796
C 0.7073 -0.9455 -1.4079
C 1.7722 -1.5174 -2.1178
C 1.5226 -2.3957 -3.1849
C 0.2105 -2.7129 -3.5501
C -0.8584 -2.1643 -2.8409
C -0.6152 -1.2905 -1.7712
C 0.5453 -0.2520 1.7623
C -0.8194 -0.3873 2.0696
C -1.2313 -0.6328 3.3812
C -0.2817 -0.7616 4.3954
C 1.0847 -0.6737 4.0902
C 1.5040 -0.4237 2.7685
Ag 3.5046 0.0605 0.0660
P 5.9646 0.0605 0.0660
C 6.7159 -1.5541 -0.2701
C 6.2755 -2.2174 -1.4324
C 6.6874 -3.5199 -1.7162
C 7.5489 -4.1811 -0.8429
C 7.9983 -3.5365 0.3145
C 7.5807 -2.2286 0.6087
C 6.4675 0.8815 -1.4499
C 5.5190 1.4751 -2.2858
C 5.9385 2.1632 -3.4342
C 7.3014 2.2582 -3.7454
C 8.2524 1.6899 -2.8960
C 7.8390 1.0113 -1.7465
C 6.4130 0.6123 1.7308
C 5.4233 1.0122 2.6418
C 5.7895 1.6168 3.8588
C 7.1394 1.8191 4.1698
C 8.1271 1.4135 3.2715
C 7.7671 0.8194 2.0566
H -1.8047 1.1439 -0.4699
H -2.5022 3.3718 -1.2739
H -0.8189 5.1391 -1.7072
H 1.5774 4.6947 -1.2842
H 2.3029 2.4863 -0.5073
H 2.7938 -1.3046 -1.8247
H 2.3460 -2.8465 -3.7224
H 0.0218 -3.3962 -4.3716
H -1.8741 -2.4348 -3.1117
H -1.4661 -0.9214 -1.2188
H -1.5704 -0.3102 1.2971
H -2.2875 -0.7227 3.6095
H -0.6100 -0.9401 5.4134
H 1.8091 -0.8001 4.8842
H 2.5632 -0.3668 2.5078
H 5.5793 -1.7365 -2.1097
H 6.3217 -4.0220 -2.6042
H 7.8550 -5.1974 -1.0587
H 8.6545 -4.0638 0.9941
H 7.9120 -1.7775 1.5296
H 4.4652 1.4159 -2.0312
H 5.2099 2.6285 -4.0831
H 7.6230 2.7808 -4.6381
H 9.3085 1.7807 -3.1253
H 8.5921 0.5950 -1.0878
H 4.3761 0.8989 2.3850
H 5.0323 1.9568 4.5542
H 7.4224 2.3052 5.0975
H 9.1716 1.5865 3.5048
H 8.5491 0.5582 1.3570
