64
 
P 1.0676 0.0676 -0.0293
C 0.3158 -1.4909 -0.9731
C -1.2208 -1.5762 -1.0207
C 0.7413 -1.6597 -2.4715
C 0.8633 -2.7888 -0.3298
C 0.6181 -0.1722 1.9222
C 1.3268 -1.3979 2.5321
C 1.0067 0.9347 2.9776
C -0.9143 -0.2592 2.1731
C 0.5729 1.6179 -0.9851
C 1.0564 3.0478 -0.4645
C 2.5842 3.0417 -0.4165
C 0.5750 4.1720 -1.4011
C 0.5449 3.4682 0.9193
Au 3.5276 0.0676 -0.0293
N 5.6276 0.0676 -0.0293
C 5.6024 1.3965 0.5523
C 6.5317 0.2766 -1.2031
C 6.1285 -1.0387 0.7125
C 5.3241 -2.1759 0.7735
C 5.8562 -3.3597 1.3352
C 7.1620 -3.3814 1.8603
C 7.9395 -2.2242 1.8482
C 7.4316 -1.0571 1.2782
H -1.6498 -0.7797 -1.6533
H -1.7146 -1.5568 -0.0678
H -1.5297 -2.5710 -1.4218
H 0.4531 -0.8095 -3.1148
H 0.1968 -2.5451 -2.9056
H 1.8087 -1.9312 -2.6224
H 0.3025 -3.0385 0.5655
H 1.9688 -2.7237 -0.1750
H 0.6771 -3.7026 -0.9348
H 2.4138 -1.3403 2.3219
H 0.9299 -2.3601 2.2637
H 1.1762 -1.4566 3.6329
H 2.0928 1.1348 3.0727
H 0.7035 0.6119 4.0061
H 0.3524 1.8237 3.0089
H -1.3817 -1.1606 1.8037
H -1.4340 0.6617 1.8132
H -1.1535 -0.3593 3.2553
H -0.5363 1.6366 -1.0365
H 0.9634 1.4988 -2.0149
H 3.0021 2.8629 -1.4213
H 2.8930 2.2014 0.2379
H 2.9718 4.0154 -0.0273
H 0.9334 4.0003 -2.4311
H 0.9709 5.1599 -1.0577
H -0.5353 4.2503 -1.3941
H 1.1236 2.9024 1.6113
H -0.5611 3.3908 1.0373
H 0.8383 4.5073 1.2000
H 6.1847 2.2749 0.1780
H 5.0407 1.4597 1.5028
H 4.7702 1.7662 -0.0968
H 6.5329 1.2936 -1.6754
H 6.4703 -0.4954 -1.9831
H 7.5991 0.2947 -0.8548
H 4.3049 -2.0897 0.3376
H 5.2776 -4.2724 1.3548
H 7.5804 -4.2914 2.2791
H 8.9462 -2.2356 2.2564
H 8.0724 -0.1836 1.2584
