78
 
P 1.0736 -0.0650 0.0189
C 0.2087 1.1986 0.9645
C -1.0698 1.0102 1.4837
C -1.6432 1.9917 2.2996
C -0.9477 3.1717 2.5912
F -1.5156 4.1187 3.3783
C 0.3371 3.3671 2.0820
C 0.9205 2.3790 1.2817
C 0.5183 0.2909 -1.6691
C 0.9045 1.4411 -2.3744
C 0.4031 1.6691 -3.6696
C -0.4744 0.7524 -4.2633
F -0.9741 0.9774 -5.5038
C -0.8480 -0.3949 -3.5718
C -0.3611 -0.6180 -2.2884
C 0.6898 -1.6019 0.9159
C 0.4589 -2.7940 0.1925
C 0.0208 -3.9526 0.8385
C -0.1722 -3.9466 2.2184
F -0.6151 -5.0653 2.8441
C 0.0890 -2.7855 2.9522
C 0.5169 -1.6186 2.3064
Au 3.5336 -0.0650 0.0189
P 5.9936 -0.0650 0.0189
C 6.7667 -1.6977 0.1074
C 6.5108 -2.6927 -0.8879
C 5.6538 -2.4841 -2.1181
C 7.0458 -3.9793 -0.7215
C 7.7960 -4.2976 0.4082
C 8.0342 -3.3323 1.3835
C 7.5279 -2.0428 1.2350
C 6.4735 0.5964 -1.6542
C 7.8341 0.7780 -2.0745
C 9.0362 0.3332 -1.3001
C 8.1256 1.3876 -3.3089
C 7.1121 1.7727 -4.1711
C 5.7809 1.5638 -3.8080
C 5.4550 0.9997 -2.5522
C 6.2875 0.7791 1.6194
C 5.4372 0.6614 2.7568
C 4.2721 -0.2821 2.8415
C 5.6702 1.4766 3.8831
C 6.7352 2.3744 3.9126
C 7.5992 2.4579 2.8263
C 7.3735 1.6757 1.6890
H -1.6002 0.0921 1.2853
H -2.6257 1.8287 2.7150
H 0.8823 4.2763 2.3186
H 1.9314 2.5403 0.9168
H 1.5804 2.1584 -1.9294
H 0.6857 2.5583 -4.2159
H -1.5273 -1.1121 -4.0184
H -0.7098 -1.5003 -1.7889
H 0.5961 -2.8486 -0.8764
H -0.1818 -4.8510 0.2649
H -0.0599 -2.7825 4.0223
H 0.6844 -0.7251 2.8888
H 5.1845 -1.4982 -2.1855
H 4.8072 -3.2008 -2.1191
H 6.2621 -2.6444 -3.0351
H 6.8569 -4.7494 -1.4614
H 8.1811 -5.3004 0.5344
H 8.6004 -3.5858 2.2686
H 7.7127 -1.3293 2.0233
H 8.7897 -0.3450 -0.4777
H 9.5940 1.2116 -0.9199
H 9.7021 -0.2405 -1.9840
H 9.1564 1.5459 -3.6176
H 7.3732 2.2239 -5.1256
H 5.0111 1.8586 -4.5105
H 4.4053 0.8705 -2.2664
H 4.1642 -0.9180 1.9477
H 3.3385 0.2963 3.0057
H 4.4202 -0.9651 3.7067
H 5.0142 1.4252 4.7447
H 6.8907 3.0053 4.7806
H 8.4340 3.1481 2.8601
H 8.0498 1.7879 0.8560
