84
 
P 0.9995 -0.0006 -0.1000
C 0.0366 0.3837 1.5443
C -1.4001 0.5331 1.6452
C -2.3499 0.7073 0.5216
C -2.0698 0.5223 2.8872
C -1.4022 0.4017 4.0840
C -2.1505 0.3008 5.3877
C -0.0273 0.3571 4.0692
C 0.7223 0.3568 2.8613
C 2.2084 0.1725 3.1473
C 0.6311 1.3587 -1.3895
C 1.1088 2.7132 -1.3199
C 1.5595 3.4025 -0.0706
C 1.1059 3.5401 -2.4663
C 0.5997 3.0991 -3.6827
C 0.6726 3.9599 -4.9162
C -0.0653 1.8824 -3.7142
C -0.1267 1.0544 -2.5795
C -1.1356 -0.0754 -2.6557
C 0.6650 -1.7999 -0.4979
C 0.6736 -2.2519 -1.8498
C 1.3187 -1.4953 -2.9633
C 0.0726 -3.4703 -2.2043
C -0.4565 -4.3140 -1.2372
C -1.1317 -5.5988 -1.6046
C -0.3041 -3.9825 0.0985
C 0.2626 -2.7629 0.4881
C 0.4746 -2.6111 1.9621
Au 3.4595 -0.0006 -0.1000
C 5.6095 -0.0006 -0.1000
N 6.3662 0.7640 0.7128
C 5.9135 1.7636 1.6655
C 7.6488 0.4602 0.4404
C 7.6590 -0.5128 -0.5311
N 6.3808 -0.7894 -0.8716
C 5.9546 -1.7414 -1.8507
C 6.7753 -2.8439 -2.1768
C 6.3873 -3.7557 -3.1578
C 5.2358 -3.5216 -3.8899
C 4.4517 -2.4120 -3.6075
C 4.7385 -1.5559 -2.5210
H -1.8234 0.8943 -0.4008
H -2.9528 1.6250 0.7216
H -3.0492 -0.1564 0.4765
H -3.1527 0.5869 2.9240
H -3.2506 0.3518 5.2386
H -1.8423 1.1210 6.0664
H -1.9234 -0.6759 5.8727
H 0.4516 0.2582 5.0415
H 2.4403 0.3602 4.2303
H 2.8558 0.8679 2.5869
H 2.5139 -0.8831 3.0733
H 1.4071 2.7909 0.8341
H 0.8876 4.2947 0.0437
H 2.5932 3.7871 -0.1581
H 1.5103 4.5464 -2.4136
H 1.1548 4.9386 -4.7049
H -0.3514 4.1465 -5.2965
H 1.2676 3.4547 -5.7109
H -0.5539 1.5793 -4.6350
H -1.2250 -0.5775 -3.6413
H -2.1397 0.3231 -2.4495
H -1.1040 -0.7382 -1.8044
H 1.8857 -0.6034 -2.6379
H 0.7173 -1.2611 -3.8563
H 1.9809 -2.2365 -3.3281
H 0.0125 -3.7538 -3.2496
H -1.1416 -5.7553 -2.7029
H -2.1847 -5.5915 -1.2431
H -0.5896 -6.4365 -1.1236
H -0.6481 -4.6848 0.8490
H 0.2091 -3.5148 2.5438
H -0.1435 -1.8497 2.4152
H 1.5647 -2.4763 2.1064
H 4.8039 1.8012 1.6854
H 6.3040 2.7577 1.3549
H 6.3072 1.5264 2.6762
H 8.5139 0.9141 0.9067
H 8.5401 -0.9616 -0.9720
H 7.7037 -3.0211 -1.6539
H 6.9925 -4.6239 -3.3797
H 4.9422 -4.1947 -4.6862
H 3.6389 -2.2642 -4.2795
H 4.0781 -0.7255 -2.2118
