36
 
P 1.0628 0.0618 0.0473
C 0.0846 1.5772 -0.1808
C 0.6270 -0.7170 -1.5342
C 0.5727 -0.5010 1.6692
C -0.7782 -0.8252 1.8845
C -1.1852 -1.3870 3.0956
C -0.2438 -1.6336 4.0966
C 1.1080 -1.3316 3.8782
C 1.5216 -0.7702 2.6589
Au 3.5228 0.0618 0.0473
N 5.6228 0.0618 0.0473
C 6.2467 0.9223 0.8906
C 7.6440 1.0875 0.8233
O 8.3032 2.0450 1.5261
C 7.7026 3.0211 2.2966
C 8.3727 0.2554 -0.0345
C 7.7099 -0.6643 -0.8498
C 6.3145 -0.7061 -0.8341
H -1.0050 1.4159 -0.2153
H 0.4202 2.0334 -1.1464
H 0.3709 2.2998 0.6096
H -0.4838 -0.7761 -1.5929
H 1.0115 -1.7566 -1.5287
H 1.0192 -0.1610 -2.4067
H -1.5134 -0.6771 1.1019
H -2.2265 -1.6458 3.2500
H -0.5634 -2.0735 5.0333
H 1.8323 -1.5500 4.6509
H 2.5721 -0.5660 2.4673
H 5.6358 1.5564 1.5182
H 8.4818 3.6874 2.7193
H 7.1424 2.5478 3.1277
H 7.0128 3.6420 1.6800
H 9.4513 0.3361 -0.0871
H 8.2698 -1.3198 -1.5046
H 5.7823 -1.3975 -1.4739
