39
 
P 1.1627 0.0343 -0.0127
Cl -0.4396 -1.2105 -0.4497
Cl 0.5787 0.5677 1.9046
Cl 0.7454 1.4249 -1.5114
Au 3.5637 0.2645 0.0281
P 5.9127 -0.0768 0.1062
C 6.6490 -1.7099 0.1872
C 7.4497 -2.2249 -0.8371
C 7.8057 -3.5782 -0.8273
C 7.3937 -4.4109 0.2183
C 6.6239 -3.8936 1.2617
C 6.2355 -2.5518 1.2362
C 6.3952 0.7188 -1.4557
C 7.1376 1.9195 -1.4033
C 7.3998 2.6516 -2.5637
C 6.9652 2.1760 -3.7979
C 6.2964 0.9490 -3.8746
C 5.9982 0.2259 -2.7067
C 6.3296 0.8116 1.5942
C 5.2968 1.3798 2.3458
C 5.6371 2.2413 3.4122
C 6.9836 2.4879 3.7357
C 8.0033 1.8792 3.0000
C 7.6786 1.0568 1.9177
H 7.7555 -1.6044 -1.6644
H 8.3834 -3.9879 -1.6435
H 7.6604 -5.4593 0.2128
H 6.3024 -4.5389 2.0711
H 5.5764 -2.1820 2.0148
H 7.4964 2.3238 -0.4680
H 7.9273 3.5974 -2.5036
H 7.1515 2.7611 -4.6910
H 5.9892 0.5744 -4.8411
H 5.4459 -0.7000 -2.7769
H 4.2452 1.1637 2.0472
H 4.8677 2.7378 3.9857
H 7.2394 3.1576 4.5511
H 9.0428 2.0675 3.2511
H 8.4785 0.6421 1.3130
