75
 
P 1.0652 0.0508 -0.0563
C 0.9039 -1.5363 -1.1213
C -0.1355 -1.8340 -2.0764
C -1.4677 -1.1778 -2.0976
C 0.0578 -2.8098 -3.0954
C 1.2523 -3.5164 -3.2104
C 1.5516 -4.4516 -4.3577
C 2.2026 -3.3485 -2.2298
C 2.0359 -2.4130 -1.1933
C 3.1643 -2.3476 -0.2484
C 0.5112 -0.4704 1.7069
C 1.3419 -0.1659 2.8442
C 2.7712 0.2052 2.7976
C 0.8630 -0.2088 4.1608
C -0.4234 -0.5861 4.4552
C -0.8742 -0.6305 5.8898
C -1.2602 -0.9518 3.4132
C -0.8326 -0.9098 2.0581
C -1.8878 -1.3312 1.0811
C 0.4579 1.6747 -0.7330
C -0.7056 2.4462 -0.2433
C -1.6700 2.2285 0.9371
C -1.0801 3.6121 -0.9304
C -0.3693 4.0868 -2.0173
C -0.8331 5.3308 -2.7201
C 0.7729 3.4101 -2.4376
C 1.1909 2.2191 -1.8199
C 2.4572 1.5660 -2.3206
Au 3.5252 0.0508 -0.0563
N 5.6252 0.0508 -0.0563
C 6.0920 0.9130 -1.1499
C 6.0575 0.6962 1.1965
C 6.1470 -1.3244 -0.0836
H -1.5048 -0.3554 -1.3833
H -2.2115 -1.9695 -1.8224
H -1.7311 -0.7975 -3.1005
H -0.7093 -2.9835 -3.8438
H 0.7170 -4.5071 -5.0861
H 1.7694 -5.4657 -3.9670
H 2.4556 -4.0987 -4.9126
H 3.1197 -3.9273 -2.3081
H 3.8431 -3.2190 -0.3112
H 2.8656 -2.1721 0.7869
H 3.7849 -1.6544 -0.7102
H 3.1864 -0.0370 1.8484
H 3.3148 -0.4710 3.4943
H 2.9273 1.2566 3.1137
H 1.5186 0.0574 4.9849
H -0.0568 -0.3301 6.5841
H -1.1587 -1.6721 6.1380
H -1.7327 0.0519 6.0644
H -2.2732 -1.2460 3.6726
H -2.7789 -1.7654 1.5894
H -1.4703 -2.1477 0.4661
H -2.2953 -0.4818 0.5120
H -1.4730 1.4075 1.6196
H -2.7209 2.1374 0.5664
H -1.7089 3.1343 1.5980
H -1.9512 4.1806 -0.6065
H -1.8025 5.6966 -2.3131
H -0.9860 5.1164 -3.7983
H -0.0803 6.1345 -2.5973
H 1.3328 3.8094 -3.2720
H 2.9600 2.1866 -3.0912
H 2.2262 0.5847 -2.7946
H 3.1748 1.4710 -1.4593
H 5.6758 1.9390 -1.0661
H 5.7368 0.4899 -2.1148
H 7.2044 0.9475 -1.1877
H 5.6573 1.7278 1.2816
H 7.1708 0.7263 1.2653
H 5.6837 0.1203 2.0708
H 5.8426 -1.8218 -1.0298
H 5.7359 -1.9090 0.7697
H 7.2539 -1.3491 -0.0614
