46
 
P 0.9610 0.0802 0.0452
C 0.2083 0.6606 -1.4960
C -1.1652 0.7731 -1.7495
C -1.6132 1.1941 -3.0094
C -0.6998 1.5323 -4.0134
F -1.1410 1.9159 -5.2372
C 0.6683 1.4820 -3.7520
C 1.1188 1.0516 -2.5016
C 0.4748 -1.6475 -0.1528
C 1.4167 -2.6773 -0.2357
C 0.9885 -4.0153 -0.2513
C -0.3760 -4.3265 -0.1820
F -0.7880 -5.6181 -0.1819
C -1.3164 -3.3049 -0.0854
C -0.8934 -1.9798 -0.0625
C 0.4505 1.0113 1.5025
C -0.3348 0.3476 2.4630
C -0.7971 1.0179 3.5959
C -0.4727 2.3601 3.7890
F -0.9321 3.0124 4.8861
C 0.3234 3.0277 2.8495
C 0.7862 2.3569 1.7044
Au 3.4210 0.0802 0.0452
N 5.5210 0.0802 0.0452
C 6.1679 -0.4438 -1.0297
C 7.5609 -0.5463 -1.0291
C 8.2752 -0.1102 0.0886
C 7.5926 0.4337 1.1799
C 6.1977 0.5267 1.1368
H -1.8953 0.5455 -0.9971
H -2.6735 1.2548 -3.2089
H 1.3797 1.7661 -4.5202
H 2.1897 1.0165 -2.3239
H 2.4734 -2.4484 -0.2531
H 1.7136 -4.8149 -0.2969
H -2.3733 -3.5337 -0.0027
H -1.6492 -1.2271 0.0742
H -0.6046 -0.6919 2.3376
H -1.4114 0.4948 4.3197
H 0.5743 4.0677 3.0098
H 1.3952 2.8854 0.9843
H 5.5956 -0.7972 -1.8774
H 8.0785 -0.9733 -1.8784
H 9.3537 -0.2006 0.1113
H 8.1375 0.7642 2.0545
H 5.6512 0.9208 1.9832
