70
 
P 0.7561 -0.0187 -1.7188
Cl -0.6978 1.0696 -0.6697
Cl 1.1377 -0.3148 -3.7608
Cl -0.3183 -1.6277 -1.0134
Au 3.1589 -0.2220 -1.0339
C 5.3783 -0.0863 -0.3283
N 6.1312 1.0966 -0.0344
C 5.8646 2.5857 0.0496
C 4.6056 3.1535 -0.3293
C 3.4752 2.3980 -0.8437
C 2.2912 2.5583 0.1495
C 3.1545 2.7434 -2.2903
C 4.3047 4.5128 -0.1917
C 5.1401 5.3625 0.4253
C 6.3703 4.9186 0.8165
C 6.8201 3.5844 0.5894
C 8.3215 3.3542 0.8749
C 9.1928 4.5790 0.6123
C 8.6900 2.7594 2.2773
C 7.3332 0.6011 0.3481
C 7.3537 -0.7111 0.3692
N 6.1469 -1.1834 -0.0060
C 5.7641 -2.5791 0.0411
C 6.1137 -3.3797 1.1927
C 6.9284 -2.9177 2.4271
C 6.1179 -3.0422 3.6999
C 8.2072 -3.7505 2.5584
C 5.6910 -4.7225 1.2187
C 4.9605 -5.2852 0.1973
C 4.6830 -4.5658 -0.9277
C 5.0921 -3.2437 -1.0596
C 5.0450 -2.7699 -2.5094
C 4.1586 -1.6235 -2.9072
C 6.4771 -2.4352 -2.8175
H 3.8039 1.4669 -0.8634
H 2.1196 3.5830 0.5375
H 2.3922 1.9291 1.0630
H 1.3795 2.3786 -0.3921
H 2.8491 3.7901 -2.3263
H 2.3314 2.1036 -2.6550
H 4.0217 2.6472 -2.9858
H 3.3561 4.9239 -0.5133
H 4.8101 6.3791 0.5830
H 6.9578 5.6814 1.2846
H 8.6774 2.7750 -0.0031
H 8.9832 5.3805 1.3382
H 9.0114 4.9346 -0.4292
H 10.2597 4.3109 0.7366
H 8.6521 3.5230 3.0747
H 9.7386 2.3722 2.2674
H 8.0462 1.9154 2.6090
H 8.2303 1.0211 0.6803
H 8.2647 -1.2092 0.7096
H 7.2411 -1.8676 2.4192
H 5.7492 -4.0767 3.8317
H 5.2694 -2.3330 3.6413
H 6.7637 -2.7906 4.5686
H 7.9509 -4.8204 2.6990
H 8.8231 -3.4690 3.4416
H 8.8052 -3.5798 1.6417
H 5.9247 -5.3706 2.0430
H 4.6467 -6.3132 0.2409
H 4.1880 -5.0815 -1.7374
H 4.7755 -3.6138 -3.1983
H 4.5097 -0.7410 -2.4209
H 3.1013 -1.8066 -2.6758
H 4.2945 -1.4012 -3.9821
H 6.7460 -1.5729 -2.2001
H 6.6298 -2.0831 -3.8414
H 7.0892 -3.3371 -2.5767
