68
 
P 0.9988 0.0593 0.0805
C 0.2083 1.2135 1.2264
C -1.1598 1.4990 1.3075
C -1.6084 2.4828 2.2133
C -0.6985 3.1750 3.0296
Cl -1.2475 4.3969 4.1634
C 0.6612 2.8999 2.9341
C 1.1010 1.9396 2.0324
C 0.5347 0.6845 -1.5405
C 0.8966 1.9659 -1.9789
C 0.4592 2.4237 -3.2313
C -0.3357 1.6067 -4.0459
Cl -0.9129 2.1942 -5.5960
C -0.6785 0.3221 -3.6181
C -0.2443 -0.1355 -2.3716
C 0.6205 -1.5887 0.7151
C -0.2101 -1.8190 1.8145
C -0.4997 -3.1280 2.2147
C 0.0326 -4.2200 1.5205
Cl -0.3118 -5.8545 2.0588
C 0.8356 -4.0048 0.3987
C 1.1242 -2.6960 -0.0064
Au 3.4588 0.0593 0.0805
C 5.6088 0.0593 0.0805
N 6.3731 0.0198 1.1866
C 5.8913 0.0180 2.5760
C 4.3415 -0.0363 2.5792
C 6.4415 -1.2034 3.3199
C 6.3774 1.3119 3.2763
C 7.6499 0.0505 0.7452
C 7.6308 0.0946 -0.6357
N 6.3424 0.0945 -1.0441
C 5.8306 0.0486 -2.4253
C 6.3781 -1.2255 -3.1119
C 4.2756 0.0090 -2.4277
C 6.2961 1.2927 -3.1904
H -1.8647 0.9863 0.6709
H -2.6606 2.7157 2.2829
H 1.3836 3.4291 3.5485
H 2.1543 1.7714 1.9615
H 1.5021 2.6096 -1.3543
H 0.7285 3.4159 -3.5675
H -1.2887 -0.3188 -4.2451
H -0.5311 -1.1290 -2.0522
H -0.6495 -0.9983 2.3544
H -1.1427 -3.2914 3.0667
H 1.2316 -4.8499 -0.1569
H 1.7361 -2.5552 -0.8925
H 3.9687 -0.9537 2.0937
H 3.9908 0.8386 2.0339
H 3.9541 0.0120 3.6222
H 6.1030 -2.1319 2.8153
H 6.0809 -1.2059 4.3714
H 7.5523 -1.1857 3.3284
H 6.0041 2.2155 2.7460
H 7.4889 1.3688 3.2941
H 6.0183 1.3562 4.3264
H 8.5315 0.0436 1.3732
H 8.4944 0.1081 -1.2882
H 6.0567 -2.1378 -2.5629
H 7.4904 -1.2229 -3.1394
H 6.0128 -1.3030 -4.1576
H 3.9139 -0.8750 -1.8707
H 3.8989 -0.0832 -3.4726
H 3.8847 0.9565 -2.0317
H 7.4043 1.3541 -3.2007
H 5.8952 2.2033 -2.6964
H 5.9303 1.2596 -4.2392
