67
 
P 0.9100 -0.0256 0.0352
C 0.5731 -0.0848 -1.9491
C 1.2082 1.1194 -2.6558
C 2.7393 1.0091 -2.7289
C 3.2157 -0.2961 -3.3983
C 2.5785 -1.4873 -2.7114
C 1.0624 -1.2769 -2.8895
C 0.0549 -1.5635 0.7956
C -1.4929 -1.5702 0.6057
C -1.8908 -1.9138 -0.8252
C -1.2103 -3.2069 -1.3153
C 0.2738 -3.4323 -0.8354
C 0.5573 -3.0079 0.5705
C 0.4557 1.5949 0.8826
C -0.6946 2.4102 0.5397
C -1.7591 2.1184 -0.4836
C -0.9657 3.6014 1.2407
C -0.2013 4.0034 2.3206
C -0.5178 5.2683 3.0655
C 0.8448 3.2005 2.7367
C 1.1834 2.0133 2.0527
C 2.3141 1.2198 2.6440
Au 3.3700 -0.0256 0.0352
N 5.4700 -0.0256 0.0352
C 6.1131 -1.1636 -0.3357
F 5.3919 -2.2673 -0.6497
C 7.5089 -1.2159 -0.3221
C 8.2294 -0.0699 0.0219
F 9.5850 -0.0927 0.0150
C 7.5484 1.0993 0.3727
C 6.1498 1.0930 0.4003
F 5.4676 2.2192 0.7205
H -0.4487 0.1213 -2.2377
H 0.8684 2.0500 -2.1675
H 0.8280 1.1565 -3.7111
H 3.1246 1.0480 -1.7087
H 3.1383 1.8691 -3.2932
H 4.3175 -0.3901 -3.3625
H 2.9079 -0.3144 -4.4726
H 2.9020 -1.5412 -1.6241
H 2.8987 -2.4215 -3.2340
H 0.5286 -2.2302 -2.9620
H 0.8324 -1.0672 -3.9617
H 0.2354 -1.4113 1.8804
H -1.9318 -0.5940 0.9012
H -1.9444 -2.3583 1.2454
H -1.6534 -1.0849 -1.4238
H -2.9879 -1.9461 -0.9939
H -1.2968 -3.2435 -2.4285
H -1.8192 -4.0405 -0.9320
H 1.0352 -2.8127 -1.2125
H 0.6211 -4.4476 -1.1066
H 1.6496 -3.0762 0.7984
H 0.0364 -3.7137 1.2509
H -1.7009 1.1357 -0.9424
H -1.7823 2.9163 -1.2560
H -2.7499 2.1406 0.0336
H -1.8173 4.2155 0.9619
H -1.3837 5.8044 2.6209
H 0.3635 5.9438 3.0369
H -0.7585 5.0252 4.1216
H 1.3952 3.5174 3.6168
H 2.6434 1.6702 3.6213
H 3.1518 1.1806 1.8850
H 1.9403 0.2133 2.9366
H 8.0251 -2.1331 -0.5756
H 8.0983 1.9979 0.6208
