23
 
P 1.0760 -0.0640 -0.0117
C 0.1217 1.2369 -0.8434
C 0.5943 -1.5288 -0.9664
C 0.5967 0.1872 1.7191
Au 3.5360 -0.0640 -0.0117
O 5.5860 -0.0640 -0.0117
C 6.3430 -1.1329 0.0053
C 7.6637 -0.7276 -0.0066
C 7.6459 0.6545 -0.0318
C 6.3169 1.0225 -0.0341
H -0.9707 1.1211 -0.7694
H 0.4456 1.2546 -1.9096
H 0.4455 2.2122 -0.4122
H -0.5166 -1.5916 -0.9699
H 0.9831 -2.4320 -0.4515
H 0.9715 -1.4830 -2.0049
H -0.5142 0.1638 1.7788
H 0.9742 1.1488 2.1134
H 0.9868 -0.6593 2.3219
H 5.9795 -2.1513 0.0239
H 8.5392 -1.3626 0.0012
H 8.5012 1.3168 -0.0477
H 5.9251 2.0308 -0.0525
