57
 
P 1.0399 -0.0622 0.0674
C 0.2748 -1.0732 1.4608
C -1.2530 -1.0568 1.4702
C 0.7636 -2.5404 1.3480
C 0.7830 -0.5609 2.8349
C 0.4762 1.5617 0.6551
C 1.2887 2.4451 1.3751
C 0.7597 3.6694 1.8233
C -0.5659 4.0231 1.5363
C -1.3630 3.1691 0.7799
C -0.8431 1.9544 0.3372
C 0.6497 -0.8117 -1.5241
C -0.6877 -0.9382 -1.9759
C -0.9724 -1.4711 -3.2340
C 0.0719 -1.8627 -4.0669
C 1.4052 -1.7113 -3.6412
C 1.7043 -1.1857 -2.3604
Au 3.4999 -0.0622 0.0674
N 5.5999 -0.0622 0.0674
C 5.5924 0.1620 -1.3864
C 6.2940 -1.3644 0.0935
C 6.1776 1.0477 0.7843
C 7.4548 0.9970 1.3867
C 7.9784 2.1142 2.0471
C 7.2604 3.3090 2.0956
C 6.0236 3.4011 1.4585
C 5.4830 2.2818 0.8106
H -1.6529 -1.4867 0.5393
H -1.6374 -0.0370 1.6307
H -1.6397 -1.6762 2.3046
H 0.3546 -3.0506 0.4526
H 0.4549 -3.1299 2.2424
H 1.8754 -2.5913 1.3006
H 0.5298 0.5001 3.0119
H 1.8843 -0.6849 2.9385
H 0.3071 -1.1331 3.6621
H 2.3104 2.1753 1.6075
H 1.3709 4.3464 2.4020
H -0.9777 4.9598 1.8923
H -2.3861 3.4415 0.5405
H -1.4880 1.3177 -0.2512
H -1.5308 -0.6163 -1.3880
H -2.0037 -1.5702 -3.5666
H -0.1622 -2.2733 -5.0450
H 2.1946 -2.0037 -4.3178
H 2.7407 -1.0415 -1.9772
H 5.0628 -0.6675 -1.9185
H 6.5996 0.3308 -1.8274
H 4.9721 1.0544 -1.6196
H 5.6170 -2.1806 -0.2396
H 6.6395 -1.6188 1.1132
H 7.2200 -1.3890 -0.5437
H 8.0641 0.1081 1.3498
H 8.9502 2.0539 2.5180
H 7.6714 4.1671 2.6144
H 5.4881 4.3442 1.4673
H 4.5275 2.3901 0.3110
