38
 
P 0.9158 -0.0334 0.0424
O 0.4248 -0.3735 -1.5569
C 0.8166 0.6530 -2.4264
C 0.3513 0.2704 -3.8282
O 0.5442 -0.8261 1.5134
C -0.8057 -1.2670 1.4132
C -1.1482 -2.3186 2.4548
C 0.1581 1.5277 0.5389
C -1.2089 1.8395 0.5145
C -1.6324 3.1211 0.8997
C -0.7001 4.0906 1.2915
C 0.6593 3.7852 1.3028
C 1.0825 2.5128 0.9289
Au 3.3758 -0.0334 0.0424
O 5.4258 -0.0334 0.0424
C 6.1824 0.2413 1.0754
C 7.5030 0.1330 0.6839
C 7.4844 -0.2301 -0.6502
C 6.1552 -0.3177 -1.0070
H 1.9245 0.7620 -2.4377
H 0.3171 1.6108 -2.1622
H 0.8129 -0.6928 -4.1362
H 0.6344 1.0560 -4.5585
H -0.7546 0.1500 -3.8439
H -1.0716 -1.6995 0.4136
H -1.4665 -0.4219 1.6547
H -0.6055 -3.2670 2.2671
H -2.2436 -2.5245 2.4109
H -0.9081 -1.9296 3.4642
H -1.9424 1.1172 0.1892
H -2.6839 3.3704 0.8853
H -1.0258 5.0818 1.5784
H 1.3888 4.5317 1.5946
H 2.1463 2.2950 0.9382
H 5.8176 0.5104 2.0574
H 8.3790 0.2974 1.2968
H 8.3396 -0.4107 -1.2878
H 5.7609 -0.5837 -1.9787
