80
 
P 1.0588 -0.0447 -0.0674
C 0.0120 1.4750 0.3861
C 0.2390 2.0104 1.8477
C 1.6492 2.6180 2.0958
C 1.9780 3.7338 1.0931
C 1.7555 3.2429 -0.3385
C 0.3009 2.7120 -0.4843
C 0.7349 -0.1210 -2.0043
C 1.2719 0.8972 -3.0460
C 2.7700 0.8859 -3.0249
C 3.2580 -0.4418 -3.5804
C 2.7201 -1.6000 -2.7283
C 1.1881 -1.5147 -2.5769
C 0.5156 -1.4429 1.0708
C -0.6290 -2.2607 0.7440
C -1.5117 -2.1343 -0.4494
C -1.0217 -3.3291 1.5475
C -0.3318 -3.6692 2.6864
C -0.8079 -4.8445 3.4941
C 0.7980 -2.9289 3.0369
C 1.2425 -1.8327 2.2468
C 2.4997 -1.1422 2.6915
Au 3.5188 -0.0447 -0.0674
C 5.6688 -0.0447 -0.0674
N 6.3861 0.8167 -0.6826
C 5.8729 1.8883 -1.4963
C 7.7920 0.5798 -0.4613
C 7.8058 -0.4494 0.6835
N 6.4545 -0.9520 0.6760
C 6.0373 -2.1982 1.2393
C 6.7640 -2.7980 2.2873
C 6.3796 -4.0441 2.7982
C 5.2867 -4.7195 2.2516
C 4.5656 -4.1429 1.2044
C 4.9296 -2.8848 0.7098
H -1.0537 1.1939 0.2768
H 0.0189 1.2394 2.6106
H -0.4833 2.8458 2.0197
H 2.4185 1.8313 2.0139
H 1.7045 3.0511 3.1225
H 3.0309 4.0785 1.2306
H 1.3162 4.6078 1.2747
H 2.5113 2.4660 -0.5593
H 1.9277 4.0908 -1.0384
H -0.0112 2.4724 -1.4734
H -0.3918 3.5406 -0.2353
H -0.3470 -0.0211 -2.1802
H 0.9337 1.9277 -3.0377
H 0.9007 0.6015 -4.0607
H 3.0783 0.9956 -1.9749
H 3.1428 1.7225 -3.6509
H 4.3659 -0.4447 -3.5931
H 2.8954 -0.5365 -4.6302
H 3.1754 -1.5481 -1.7283
H 3.0194 -2.5598 -3.2038
H 0.8141 -2.3710 -1.9780
H 0.7560 -1.6532 -3.5974
H -1.2442 -1.3222 -1.0596
H -2.5608 -1.9530 -0.1480
H -1.4499 -3.0665 -1.0583
H -1.8882 -3.9219 1.2646
H -1.7196 -5.3064 3.0473
H -1.0651 -4.5236 4.5231
H -0.0189 -5.6224 3.5158
H 1.3346 -3.2266 3.9311
H 2.9213 -1.6233 3.6058
H 2.2805 -0.1022 2.9731
H 3.2597 -1.1843 1.8855
H 4.7783 1.9148 -1.4491
H 6.2163 1.7692 -2.5457
H 6.2282 2.8597 -1.0973
H 8.3531 1.4934 -0.1714
H 8.2054 0.1523 -1.4023
H 7.9609 0.0565 1.6622
H 8.5807 -1.2251 0.5051
H 7.6218 -2.3002 2.7196
H 6.9349 -4.4928 3.6124
H 5.0023 -5.6918 2.6358
H 3.7291 -4.6765 0.7707
H 4.3697 -2.4665 -0.1087
