74
 
P 1.0677 0.0695 0.0242
C 0.7671 0.6839 -1.7118
C -0.0921 1.7646 -1.9970
C -0.2976 2.2248 -3.3052
C 0.3251 1.5993 -4.3798
C 1.1429 0.4958 -4.1474
C 1.3627 0.0356 -2.8309
C 0.5497 -1.6440 0.3591
C 1.1993 -2.4179 1.3235
C 0.8262 -3.7494 1.5402
C -0.2060 -4.3273 0.7974
C -0.8767 -3.5689 -0.1633
C -0.5021 -2.2330 -0.3878
C 0.1222 1.0626 1.3068
C 0.4903 0.5754 2.7569
C 1.9693 0.8134 3.0779
C 2.2040 2.3353 2.9400
C 1.9708 2.8209 1.5076
C 0.4968 2.5904 1.2473
Au 3.5277 0.0695 0.0242
C 5.6777 0.0695 0.0242
N 6.4283 -0.7952 -0.6929
C 5.9260 -1.8516 -1.5675
C 5.1023 -1.2203 -2.6956
C 7.1155 -2.6225 -2.1927
C 5.0212 -2.7743 -0.7320
C 7.7262 -0.4911 -0.4365
C 7.7701 0.5566 0.4149
N 6.5094 0.9159 0.7018
C 6.1585 1.9840 1.6136
C 5.8535 3.2749 0.8215
C 4.9893 1.4895 2.3674
C 7.2451 2.2482 2.6817
H -0.6388 2.2618 -1.2331
H -0.9521 3.0687 -3.4873
H 0.1587 1.9605 -5.3913
H 1.6019 0.0032 -4.9990
H 1.9940 -0.8332 -2.7138
H 2.0045 -1.9970 1.8994
H 1.3476 -4.3367 2.2822
H -0.4808 -5.3632 0.9654
H -1.6795 -4.0255 -0.7350
H -1.0387 -1.6737 -1.1464
H -0.9670 0.9526 1.1639
H 0.2331 -0.4868 2.9282
H -0.0751 1.1653 3.5144
H 2.5916 0.1757 2.4107
H 2.2248 0.4909 4.1123
H 3.1247 2.7170 3.2667
H 1.5924 2.8772 3.6763
H 2.5993 2.3262 0.6989
H 2.2143 3.9077 1.4701
H 0.2707 3.1133 0.3185
H -0.0606 3.1462 2.0366
H 5.7284 -0.5179 -3.2865
H 4.2507 -0.6514 -2.2720
H 4.7081 -2.0078 -3.3719
H 7.7529 -1.9132 -2.7735
H 6.7835 -3.4211 -2.8810
H 7.7515 -3.0739 -1.3987
H 4.1613 -2.1701 -0.2920
H 5.6178 -3.2395 0.0860
H 4.6334 -3.5977 -1.3693
H 8.6081 -0.9766 -0.8266
H 8.6676 1.0216 0.7966
H 5.0647 3.1137 0.0518
H 6.7759 3.6105 0.2997
H 5.5173 4.0909 1.4965
H 4.1789 1.4080 1.6259
H 4.9200 2.1953 3.1924
H 5.1172 0.4939 2.8369
H 8.1910 2.5968 2.2420
H 7.3951 1.3170 3.2761
H 6.9041 3.0458 3.3823
