61
 
P 0.9349 -0.0746 -0.0140
C 0.0144 -1.3857 -0.8734
C 0.4226 -0.3201 1.7085
C 0.3564 1.3943 -0.9120
Au 3.3949 -0.0746 -0.0140
C 5.5449 -0.0746 -0.0140
N 6.2748 1.0986 -0.0243
C 5.8659 2.5236 -0.0020
C 4.6522 2.9310 0.6299
C 3.7530 2.0279 1.3804
C 4.2474 4.2667 0.6537
C 5.0141 5.2665 0.0912
C 4.5413 6.6880 0.1874
C 6.2142 4.9307 -0.5313
C 6.6617 3.5883 -0.5920
C 7.9726 3.3856 -1.3195
C 7.5419 0.6742 -0.0123
C 7.5881 -0.6747 0.0040
N 6.3469 -1.2192 -0.0058
C 5.9973 -2.6989 0.0130
C 6.9301 -3.8137 0.0777
C 8.4293 -3.8018 0.1062
C 6.4517 -5.1570 0.0885
C 5.0988 -5.4643 0.0375
C 4.5445 -6.8445 0.0181
C 4.2067 -4.4569 -0.0380
C 4.6388 -3.1500 -0.0713
C 3.5858 -2.2683 -0.2737
H -1.0803 -1.2949 -0.8285
H 0.3300 -2.3636 -0.4467
H 0.3705 -1.3890 -1.9307
H -0.6901 -0.2910 1.7407
H 0.7940 0.5347 2.3123
H 0.7844 -1.2780 2.1235
H -0.7570 1.4027 -0.8658
H 0.6823 1.4003 -1.9675
H 0.7094 2.3039 -0.3837
H 4.1813 1.0520 1.5265
H 2.8100 1.9290 0.8192
H 3.5824 2.3899 2.4091
H 3.3236 4.5372 1.1539
H 3.5728 6.7551 0.7330
H 4.3890 7.1018 -0.8288
H 5.2822 7.2943 0.7494
H 6.8082 5.7309 -0.9648
H 8.3732 4.3237 -1.7588
H 7.8393 2.6596 -2.1489
H 8.7763 3.0987 -0.6249
H 8.4356 1.2485 0.0300
H 8.5474 -1.0832 0.0316
H 8.9924 -2.9061 0.0505
H 8.7861 -4.3625 -0.7812
H 8.7666 -4.2815 1.0449
H 7.1466 -5.9839 0.1230
H 5.3506 -7.5957 0.0469
H 3.9470 -6.9674 -0.9150
H 3.8633 -6.9694 0.8889
H 3.1440 -4.6985 -0.0990
H 2.5604 -2.6384 -0.3961
H 3.9342 -1.9028 -1.2897
H 3.6019 -1.8016 0.7353
