53
 
P 1.0722 -0.0404 0.0561
C 0.6091 0.6293 -1.5722
C -0.2968 1.6921 -1.6784
C -0.7794 2.1300 -2.9020
C -0.3357 1.5261 -4.0702
C 0.6011 0.4882 -4.0021
C 1.0710 0.0349 -2.7572
C 0.6564 -1.8004 0.2292
C -0.0083 -2.5036 -0.7983
C -0.3031 -3.8664 -0.6531
C 0.0530 -4.5381 0.5173
C 0.6836 -3.8437 1.5522
C 0.9805 -2.4815 1.4116
C 0.3114 1.0303 1.3848
C -1.1745 1.1557 1.3851
C -1.9555 0.0118 1.5077
C -3.3351 0.0963 1.3509
C -3.9411 1.3304 1.0911
C -3.1724 2.4957 1.0511
C -1.7922 2.4159 1.2202
Au 3.5322 -0.0404 0.0561
C 5.6822 -0.0404 0.0561
N 6.4403 0.8181 0.7520
C 5.9538 1.8910 1.6044
C 7.7206 0.4919 0.4811
C 7.7135 -0.5832 -0.3920
N 6.4291 -0.9051 -0.6461
C 5.9218 -1.9803 -1.4863
H -0.6684 2.1889 -0.8346
H -1.5084 2.9319 -2.9294
H -0.7226 1.8675 -5.0203
H 0.9440 0.0252 -4.9157
H 1.7696 -0.7907 -2.7190
H -0.3011 -2.0154 -1.7162
H -0.8049 -4.4064 -1.4483
H -0.1643 -5.5947 0.6253
H 0.9452 -4.3645 2.4638
H 1.4607 -1.9591 2.2270
H 0.7723 2.0380 1.2691
H 0.6531 0.6471 2.3716
H -1.4877 -0.9445 1.6906
H -3.9250 -0.8049 1.4036
H -5.0060 1.3827 0.9234
H -3.6381 3.4549 0.8596
H -1.2014 3.3263 1.1522
H 4.8370 1.8919 1.6098
H 6.3186 2.8639 1.2117
H 6.3299 1.7512 2.6396
H 8.5912 0.9938 0.8829
H 8.5766 -1.0902 -0.8041
H 6.7608 -2.5536 -1.9345
H 5.2863 -1.5622 -2.2949
H 5.3091 -2.6692 -0.8666
