52
 
P 1.0549 0.0836 -0.0017
C 0.2907 1.7379 0.4175
C -1.2403 1.8004 0.4568
C 0.8163 2.1347 1.8310
C 0.7984 2.7752 -0.5962
C 0.6127 -0.1245 -1.7674
C 1.6152 -0.2639 -2.7368
C 1.2821 -0.4976 -4.0816
C -0.0551 -0.5955 -4.4762
C -1.0641 -0.4985 -3.5221
C -0.7362 -0.2847 -2.1778
C 0.6020 -1.1879 1.1981
C -0.7586 -1.4848 1.3887
C -1.1614 -2.4482 2.3132
C -0.2055 -3.1461 3.0489
C 1.1589 -2.8911 2.8418
C 1.5722 -1.9109 1.9121
Au 3.5149 0.0836 -0.0017
N 5.6149 0.0836 -0.0017
C 6.2331 1.0928 -0.6611
C 7.6330 1.1090 -0.7874
O 8.2915 2.0956 -1.4484
C 7.6899 3.1955 -2.0271
C 8.3631 0.0551 -0.2253
C 7.7028 -0.9707 0.4586
C 6.3099 -0.9339 0.5695
H -1.6711 1.1671 1.2561
H -1.6721 1.5575 -0.5194
H -1.5608 2.8430 0.6711
H 0.4896 1.4091 2.6096
H 0.4440 3.1369 2.1407
H 1.9288 2.1755 1.8717
H 0.4200 2.5300 -1.6085
H 1.9104 2.8004 -0.6279
H 0.4343 3.7917 -0.3322
H 2.6550 -0.2180 -2.4491
H 2.0612 -0.6127 -4.8223
H -0.3109 -0.7683 -5.5160
H -2.1013 -0.6061 -3.8245
H -1.5561 -0.2769 -1.4798
H -1.5192 -0.9750 0.8199
H -2.2171 -2.6520 2.4558
H -0.5284 -3.8899 3.7699
H 1.8847 -3.4600 3.4087
H 2.6350 -1.7114 1.7335
H 5.6171 1.8684 -1.0941
H 8.4602 3.8221 -2.5192
H 7.1769 3.8030 -1.2500
H 6.9561 2.8701 -2.7958
H 9.4413 0.0268 -0.3244
H 8.2638 -1.7934 0.8828
H 5.7797 -1.7329 1.0707
