61
 
P 0.9141 0.0031 0.0511
C 0.1678 1.4565 -0.8719
C -1.3621 1.4739 -1.0025
C 0.6619 2.7407 -0.1889
C 0.7283 1.4572 -2.3253
C 0.5170 -1.4383 -0.9906
C 1.5672 -2.2015 -1.4921
C 1.2703 -3.3548 -2.2647
C -0.0398 -3.7288 -2.5486
C -1.0873 -2.9722 -2.0499
C -0.8168 -1.8445 -1.2620
C 0.3536 0.2022 1.7818
C -1.0241 0.0998 2.0806
C -1.4927 0.1748 3.3961
C -0.5921 0.3166 4.4474
C 0.7803 0.3618 4.1818
C 1.2558 0.3029 2.8562
Au 3.3741 0.0031 0.0511
C 5.5241 0.0031 0.0511
N 6.2191 1.0402 0.3362
C 5.6726 2.3678 0.4756
C 7.6319 0.7524 0.2586
C 7.6673 -0.7739 0.2777
N 6.3618 -1.1162 -0.2204
C 5.9562 -2.4429 -0.5362
C 6.5729 -3.5691 0.0588
C 6.1873 -4.8668 -0.3048
C 5.2295 -5.0515 -1.2973
C 4.6627 -3.9424 -1.9163
C 4.9956 -2.6451 -1.5212
H -1.8687 1.5292 -0.0310
H -1.7250 0.6236 -1.6033
H -1.6827 2.3712 -1.5716
H 0.2914 2.7998 0.8530
H 0.3236 3.6441 -0.7402
H 1.7759 2.7566 -0.1641
H 0.4424 0.5367 -2.8801
H 1.8367 1.5401 -2.3515
H 0.3220 2.3174 -2.9055
H 2.5850 -1.8590 -1.2284
H 2.0066 -4.0045 -2.6646
H -0.2360 -4.6172 -3.1450
H -2.1060 -3.2778 -2.2648
H -1.6667 -1.3214 -0.8632
H -1.7545 -0.0721 1.3089
H -2.5556 0.1053 3.6025
H -0.9608 0.3682 5.4669
H 1.4702 0.4319 5.0130
H 2.3219 0.3081 2.6771
H 4.5602 2.3533 0.4159
H 6.0550 2.9859 -0.3704
H 6.0097 2.8305 1.4239
H 8.2406 1.1846 1.0795
H 7.9883 1.1269 -0.7285
H 7.7225 -1.1338 1.3296
H 8.5067 -1.1864 -0.3225
H 7.3406 -3.4545 0.8109
H 6.6431 -5.7316 0.1610
H 4.9401 -6.0490 -1.6071
H 3.9874 -4.0985 -2.7232
H 4.5559 -1.7906 -2.0176
