68
 
P 1.0965 0.0132 -0.0226
C 0.2651 0.9384 1.4680
C 0.7670 0.4986 2.8874
C 2.2548 0.8813 3.1627
C 2.5451 2.3731 2.9590
C 1.9957 2.8554 1.6111
C 0.5044 2.5015 1.4888
C 0.7678 0.5955 -1.8534
C 1.2975 1.9592 -2.3224
C 2.8308 1.9323 -2.3226
C 3.3858 0.8615 -3.2528
C 2.7985 -0.5045 -2.9041
C 1.2678 -0.4442 -2.8950
C 0.5131 -1.6925 0.4086
C -0.7470 -2.1298 -0.1391
C -1.6977 -1.2617 -0.9223
C -1.1761 -3.4551 0.0144
C -0.4217 -4.3694 0.7350
C -0.8951 -5.7736 0.9500
C 0.7980 -3.9763 1.2663
C 1.2946 -2.6722 1.0890
C 2.6534 -2.4030 1.6417
Au 3.5565 0.0132 -0.0226
N 5.6565 0.0132 -0.0226
C 5.6450 1.4515 0.3384
N 6.4689 0.0529 -1.1315
C 7.6877 -0.2069 -0.7894
C 7.7374 -0.6329 0.5347
C 6.4271 -0.6093 0.9805
H -0.8309 0.7789 1.4186
H 0.5902 -0.5798 3.0581
H 0.1535 1.0255 3.6613
H 2.9254 0.3515 2.4636
H 2.5277 0.6084 4.2118
H 3.6451 2.5558 3.0129
H 2.0762 2.9695 3.7717
H 2.5220 2.3920 0.7606
H 2.1580 3.9553 1.5514
H 0.0738 3.0144 0.6105
H -0.0003 2.9631 2.3804
H -0.3112 0.6833 -2.0474
H 0.8641 2.7849 -1.7229
H 0.9386 2.1520 -3.3746
H 3.1982 1.6397 -1.3216
H 3.1978 2.9289 -2.6648
H 4.4881 0.8333 -3.1311
H 3.1534 1.1067 -4.3140
H 3.1495 -0.8004 -1.9054
H 3.1530 -1.2519 -3.6453
H 0.8300 -1.4438 -2.6999
H 0.9296 -0.1502 -3.9220
H -1.5354 -0.1978 -0.7407
H -2.7291 -1.3902 -0.5450
H -1.6819 -1.5350 -2.0051
H -2.1193 -3.7704 -0.4228
H -1.8786 -5.9583 0.4686
H -0.9967 -5.9495 2.0419
H -0.1507 -6.4843 0.5341
H 1.3738 -4.7162 1.8092
H 3.0664 -3.2929 2.1679
H 2.5658 -1.6416 2.4058
H 3.3501 -2.1067 0.8349
H 5.6638 2.1232 -0.5549
H 4.6732 1.7063 0.7975
H 6.4598 1.7881 1.0246
H 8.5381 -0.1072 -1.4518
H 8.6070 -0.9448 1.1002
H 6.0748 -0.8965 1.9628
