87
 
P 0.9346 -0.0703 -0.0278
C 0.0056 1.1967 1.1066
C 0.3721 2.7164 0.9510
C -0.2988 3.3003 -0.2681
C -1.8068 3.0343 -0.4312
C -2.2008 1.5828 -0.0806
C -1.5317 1.1184 1.2106
C 0.5685 0.1225 -1.9341
C 0.9335 1.3921 -2.7210
C 2.4038 1.5907 -2.5711
C 3.0928 0.5766 -3.4899
C 2.7504 -0.8299 -3.0025
C 1.2237 -1.0034 -2.8135
C 0.5348 -1.6692 0.7365
C 1.2943 -2.2176 1.7786
C 2.4197 -1.4879 2.3887
C 1.0361 -3.5164 2.2404
C 0.0258 -4.2834 1.6695
C -0.7487 -3.7505 0.6408
C -0.4971 -2.4525 0.1729
Au 3.3946 -0.0703 -0.0278
P 5.8546 -0.0703 -0.0278
C 6.5745 -0.3931 1.6010
C 5.6663 -0.5420 2.6650
C 6.0819 -0.7599 3.9760
C 7.4427 -0.7920 4.2504
C 8.3661 -0.6180 3.2071
C 7.9341 -0.4284 1.8805
C 6.3542 -1.6475 -0.8054
C 7.1003 -1.5819 -1.9989
C 7.5311 -2.7107 -2.6845
C 7.2320 -3.9621 -2.1727
C 6.4980 -4.0649 -0.9819
C 6.0514 -2.9129 -0.3014
C 6.4351 1.6311 -0.5355
C 6.0996 2.0727 -1.9619
C 5.0129 2.9235 -2.2030
C 4.6779 3.3039 -3.5215
C 5.3792 2.8012 -4.6067
C 6.5028 2.0196 -4.3834
C 6.8878 1.7019 -3.0753
H 0.4049 0.9494 2.1113
H 1.4801 2.8448 0.8661
H 0.0394 3.3194 1.8223
H 0.1917 2.6872 -0.8995
H -0.0223 4.3516 -0.5121
H -2.1067 3.2314 -1.4900
H -2.3576 3.7458 0.2136
H -1.9040 0.8788 -0.8619
H -3.3074 1.5151 -0.0114
H -1.8444 0.0948 1.4853
H -1.8670 1.8081 2.0235
H -0.5109 -0.0299 -2.0693
H 0.3918 2.3347 -2.6887
H 0.6593 1.2944 -3.7908
H 2.7559 1.4998 -1.5202
H 2.5196 2.6250 -2.8541
H 4.1902 0.6754 -3.4992
H 2.7399 0.7555 -4.5355
H 3.2583 -0.9889 -2.0375
H 3.1562 -1.5600 -3.7378
H 0.9810 -2.0172 -2.4486
H 0.7817 -0.9290 -3.8392
H 2.5558 -0.4812 1.9674
H 3.3197 -2.0950 2.1786
H 2.2475 -1.3697 3.4795
H 1.6421 -3.9414 3.0315
H -0.1440 -5.2940 2.0202
H -1.5291 -4.3562 0.1961
H -1.0996 -2.0761 -0.6446
H 4.6291 -0.4623 2.4833
H 5.3517 -0.8819 4.7744
H 7.7744 -0.9351 5.2716
H 9.4192 -0.6206 3.4309
H 8.6420 -0.2820 1.0833
H 7.3587 -0.6672 -2.4278
H 8.0972 -2.6064 -3.6085
H 7.5728 -4.8431 -2.7025
H 6.2776 -5.0434 -0.5894
H 5.4892 -3.0053 0.6124
H 7.5397 1.6706 -0.4239
H 6.0103 2.3486 0.1968
H 4.3999 3.2603 -1.3749
H 3.8274 3.9411 -3.7258
H 5.0532 3.0326 -5.6136
H 7.0772 1.6642 -5.2280
H 7.8085 1.1678 -2.9598
