46
 
P 0.9410 0.0319 0.0742
C 0.5073 0.2037 -1.6933
C -0.4264 1.1354 -2.1913
C -0.8731 1.0663 -3.5094
C -0.3757 0.0924 -4.3713
C 0.5749 -0.8198 -3.9127
C 1.0065 -0.7727 -2.5807
C 0.5432 -1.4872 0.9976
C 1.0979 -2.6974 0.5453
C 0.6919 -3.9203 1.0915
C -0.2748 -3.9506 2.0966
C -0.8039 -2.7548 2.5872
C -0.3904 -1.5251 2.0529
C 0.0655 1.4655 0.7892
C -1.4238 1.4506 0.7898
C -2.1676 0.3937 0.2419
C -3.5488 0.4444 0.2306
C -4.2087 1.5484 0.7689
C -3.4790 2.6056 1.3236
C -2.0862 2.5579 1.3359
Au 3.4010 0.0319 0.0742
N 5.5010 0.0319 0.0742
C 6.3316 0.8988 -0.5256
O 7.5876 0.5855 -0.2858
C 7.5885 -0.4908 0.4741
C 6.2808 -0.8533 0.7073
H -0.8765 1.8918 -1.5823
H -1.6287 1.7613 -3.8502
H -0.7377 0.0417 -5.3897
H 0.9529 -1.5814 -4.5841
H 1.7058 -1.5265 -2.2430
H 1.8228 -2.7043 -0.2557
H 1.1051 -4.8482 0.7150
H -0.6172 -4.9009 2.4902
H -1.5573 -2.7863 3.3646
H -0.8463 -0.6257 2.4358
H 0.4440 2.3762 0.2737
H 0.4143 1.5384 1.8445
H -1.6958 -0.4719 -0.1952
H -4.0941 -0.3783 -0.2068
H -5.2853 1.5803 0.7500
H -3.9889 3.4638 1.7370
H -1.5220 3.3851 1.7589
H 6.0101 1.7424 -1.1208
H 8.4723 -0.9906 0.8477
H 5.9215 -1.6870 1.2961
