50
 
P 0.9786 -0.0787 -0.0579
C 0.0643 1.3317 -0.7410
C 0.4849 -1.4269 -1.1649
C 0.4850 -0.0457 1.6865
Au 3.4386 -0.0787 -0.0579
P 5.8986 -0.0787 -0.0579
C 6.5879 -1.8021 0.0868
C 6.1244 -2.6547 -1.1224
C 8.1120 -1.8497 0.1989
C 5.9255 -2.4606 1.3213
C 6.3302 0.6050 -1.6977
C 5.3200 0.9983 -2.5904
C 5.6444 1.5408 -3.8445
C 6.9796 1.6993 -4.2230
C 7.9953 1.3513 -3.3338
C 7.6766 0.8216 -2.0746
C 6.2951 0.8969 1.4123
C 5.2474 1.4267 2.1733
C 5.5394 2.2819 3.2559
C 6.8664 2.6123 3.5704
C 7.9119 2.0861 2.8125
C 7.6316 1.2360 1.7353
H -1.0312 1.2370 -0.6951
H 0.4067 1.4667 -1.7931
H 0.4068 2.2409 -0.1946
H -0.6267 -1.4799 -1.1701
H 0.8650 -2.3828 -0.7466
H 0.8609 -1.2777 -2.1934
H -0.6266 -0.0745 1.7316
H 0.8617 0.8536 2.2069
H 0.8648 -0.9668 2.1770
H 6.5573 -2.3145 -2.0840
H 5.0132 -2.6380 -1.2143
H 6.4196 -3.7205 -0.9787
H 8.5816 -1.4302 -0.7071
H 8.4617 -2.8991 0.2891
H 8.4601 -1.3087 1.0964
H 4.8162 -2.4757 1.1965
H 6.1497 -1.9279 2.2662
H 6.2476 -3.5207 1.4285
H 4.2802 0.8988 -2.3149
H 4.8608 1.8408 -4.5280
H 7.2275 2.1044 -5.1986
H 9.0307 1.4984 -3.6230
H 8.4945 0.5966 -1.4091
H 4.2111 1.1928 1.8794
H 4.7411 2.7127 3.8433
H 7.0876 3.2898 4.3898
H 8.9377 2.3568 3.0488
H 8.4676 0.8840 1.1470
