27
 
C 0.9010 -0.6430 -0.0020
N -0.3535 -1.1118 0.0238
C -0.7381 -2.5138 0.0510
C -1.1579 -0.0294 0.0177
C -0.3561 1.1001 -0.0114
N 0.9307 0.6975 -0.0215
C 2.1310 1.5214 -0.0451
Au 2.6584 -1.8814 -0.0135
O 4.3342 -3.0623 -0.0245
C 5.4032 -2.2453 -0.3815
C 5.1731 -1.7324 -1.8073
C 5.5279 -1.0973 0.5831
H 0.1772 -3.1549 0.0525
H -1.3515 -2.7479 -0.8445
H -1.3333 -2.7196 0.9658
H -2.2397 -0.0553 0.0336
H -0.6868 2.1307 -0.0230
H 1.8642 2.5995 -0.0565
H 2.7306 1.2839 -0.9492
H 2.7422 1.3106 0.8577
H 6.3298 -2.8623 -0.3815
H 4.2582 -1.1002 -1.8447
H 5.0434 -2.5843 -2.5100
H 6.0425 -1.1319 -2.1515
H 4.5494 -0.5338 0.5252
H 6.4094 -0.4779 0.2904
H 5.7290 -1.5040 1.5993
