56
 
P -1.2878 -0.0180 0.9630
N -1.1785 -1.2570 -0.3236
C -2.3465 -1.1242 -1.2160
C 0.0224 -1.4746 -1.1480
C 1.2835 -1.2822 -0.3843
N 1.9423 0.0994 -0.3306
C 1.2687 1.4871 -0.2462
C -0.0623 1.6625 -0.9470
N -1.2944 1.3944 -0.1271
C -1.6990 2.5458 0.6768
N 0.0995 -0.4081 2.2075
C -0.1706 -1.5001 3.1068
C 1.6233 -0.1532 2.1731
C 2.6666 0.0028 0.9378
Au -2.8764 0.8535 2.5764
N -3.7996 1.5838 4.1521
C -3.8714 0.2285 4.7216
C -2.9250 2.2596 5.1176
C -4.9487 2.4912 3.9163
C -5.9526 2.7889 4.8905
C -6.9869 3.7299 4.6322
C -7.0320 4.4396 3.4346
C -6.0313 4.2358 2.4960
C -5.0182 3.2760 2.7274
H -3.3031 -0.9952 -0.6603
H -2.4493 -2.0237 -1.8589
H -2.2191 -0.2402 -1.8780
H 0.0389 -0.9471 -2.1054
H -0.0231 -2.5623 -1.4003
H 2.0040 -2.1380 -0.3408
H 0.9342 -1.7160 0.5432
H 2.0204 2.3152 -0.2273
H 1.0051 1.9261 0.7417
H -0.0314 1.0894 -1.8677
H -0.0876 2.7183 -1.2886
H -1.7346 3.4735 0.0729
H -1.0540 2.6729 1.5748
H -2.7335 2.3866 0.9579
H -1.0945 -1.3152 3.6558
H 0.6513 -1.5541 3.8650
H -0.1468 -2.4213 2.5006
H 1.0176 0.2726 1.5714
H 2.0196 -1.1633 2.3126
H 3.4262 -0.8298 0.8619
H 3.4171 0.8291 1.0431
H -2.8824 -0.1941 4.3337
H -4.4279 -0.5293 4.1524
H -3.6715 0.0686 5.8176
H -1.9808 1.6895 5.3139
H -3.4541 2.3267 6.1013
H -2.6184 3.2713 4.8119
H -5.9471 2.3216 5.8616
H -7.7614 3.9388 5.3622
H -7.8273 5.1636 3.2424
H -6.0491 4.8407 1.5904
H -4.2787 3.1905 1.9701
