57
 
C 1.0240 -0.6530 -0.0550
N 0.1619 -0.7463 0.8878
C 0.1676 -1.7449 1.9190
C -0.8847 0.2504 0.7518
C -0.3498 1.1924 -0.3261
N 0.6832 0.4029 -0.9327
C 1.2615 0.6897 -2.2196
Au 2.7802 -1.8697 -0.2955
C 4.5364 -3.0865 -0.5360
N 4.5362 -4.4411 -0.5225
C 3.3322 -5.2584 -0.3849
C 3.4016 -6.2060 0.8125
C 3.5900 -5.4843 2.1488
C 3.6631 -6.5150 3.2720
C 5.8342 -4.8043 -0.7123
C 6.5971 -3.6703 -0.7973
C 7.9880 -3.7166 -0.9594
C 8.5984 -4.9718 -1.0662
C 7.8231 -6.1454 -0.9997
C 6.4249 -6.0750 -0.8187
N 5.7949 -2.5927 -0.6891
C 6.2073 -1.1907 -0.6930
C 6.7634 -0.8005 -2.0689
C 5.7532 -1.1017 -3.1832
C 4.4401 -0.3483 -2.9798
H 1.0465 -2.4192 1.8074
H -0.7720 -2.3348 1.8440
H 0.1900 -1.2369 2.9065
H -1.1010 0.8144 1.6841
H -1.8012 -0.2667 0.3902
H 0.1575 2.0675 0.1435
H -1.1432 1.5365 -1.0228
H 0.7739 1.5825 -2.6693
H 1.0834 -0.1726 -2.8987
H 2.3331 0.9055 -2.1164
H 3.1940 -5.8569 -1.3103
H 2.4454 -4.5925 -0.2666
H 4.2330 -6.9202 0.6733
H 2.4558 -6.7884 0.8429
H 2.7399 -4.7909 2.3311
H 4.5341 -4.8963 2.1396
H 2.7263 -7.1118 3.3032
H 3.8021 -6.0097 4.2490
H 4.5199 -7.2029 3.1002
H 8.5982 -2.8271 -1.0029
H 9.6720 -5.0334 -1.2017
H 8.3158 -7.1056 -1.0851
H 5.8564 -6.9893 -0.7716
H 6.9677 -1.0208 0.0997
H 5.3441 -0.5420 -0.4406
H 7.6909 -1.3599 -2.2970
H 7.0383 0.2760 -2.0630
H 5.5398 -2.1920 -3.2230
H 6.2084 -0.8156 -4.1558
H 3.8976 -0.6711 -2.0388
H 3.7695 -0.5503 -3.8378
H 4.6631 0.7422 -2.9595
