30
 
C 0.9010 -0.6430 -0.0020
N -0.3519 -1.1116 0.0663
C -0.7334 -2.5123 0.1514
C -1.1578 -0.0304 0.0441
C -0.3584 1.0981 -0.0385
N 0.9285 0.6963 -0.0646
C 2.1264 1.5197 -0.1476
Au 2.6584 -1.8814 -0.0135
N 4.3750 -3.0911 -0.0247
C 5.5820 -2.4870 -0.1914
C 6.7440 -3.2597 -0.3401
C 8.0739 -2.6207 -0.6136
C 6.6379 -4.6545 -0.2676
C 5.3915 -5.2504 -0.0627
C 4.2562 -4.4430 0.0460
H 0.1828 -3.1522 0.1532
H -1.3695 -2.7791 -0.7185
H -1.3040 -2.6854 1.0885
H -2.2389 -0.0566 0.0852
H -0.6908 2.1276 -0.0764
H 1.8578 2.5965 -0.1911
H 2.7004 1.2517 -1.0599
H 2.7637 1.3401 0.7438
H 5.6223 -1.4076 -0.2662
H 7.9973 -1.5129 -0.6436
H 8.4468 -2.9653 -1.6030
H 8.8061 -2.9090 0.1678
H 7.5169 -5.2771 -0.3827
H 5.3043 -6.3279 -0.0139
H 3.2791 -4.8903 0.1697
