55
 
C 0.9010 -0.6430 -0.0020
N 0.3081 -0.1712 1.1127
C 0.7230 -0.4060 2.4917
C -0.3806 -1.1160 3.2748
C -0.7576 0.5491 0.6991
C -0.8033 0.5025 -0.6768
N 0.2307 -0.2468 -1.1040
C 0.5788 -0.5164 -2.4905
C 1.9525 0.0622 -2.7603
Au 2.6584 -1.8814 -0.0135
C 4.4159 -3.1199 -0.0250
N 5.6858 -2.6849 -0.0335
C 6.1088 -1.2875 0.0233
C 4.8178 -0.3847 0.1167
C 7.0457 -1.1368 1.2463
C 6.9343 -0.9206 -1.2348
C 6.4579 -3.7952 -0.0682
C 5.6266 -4.8945 -0.0700
N 4.3487 -4.4537 -0.0477
C 3.1114 -5.2343 -0.0353
C 3.1232 -6.1333 1.2178
C 1.8728 -4.2706 -0.0133
C 3.0688 -6.1137 -1.3008
H 0.9516 0.5666 2.9758
H 1.6367 -1.0387 2.5063
H -1.3013 -0.4946 3.3042
H -0.0437 -1.2917 4.3178
H -0.6192 -2.0935 2.8039
H -1.4537 1.0702 1.3434
H -1.5296 0.9856 -1.3190
H -0.1525 -0.0305 -3.1731
H 0.5756 -1.6111 -2.6756
H 1.9568 1.1511 -2.5312
H 2.2664 -0.1132 -3.8058
H 2.6581 -0.4492 -2.0983
H 4.1176 -0.6563 0.9129
H 4.1890 -0.5107 -0.7538
H 5.1245 0.6781 0.2135
H 6.5666 -1.5256 2.1673
H 7.3679 -0.0872 1.3971
H 7.9771 -1.7375 1.0950
H 6.3348 -1.0388 -2.1599
H 7.8380 -1.5679 -1.3318
H 7.2930 0.1304 -1.1730
H 7.5407 -3.8124 -0.0749
H 5.9360 -5.9320 -0.0810
H 3.1913 -5.5137 2.1373
H 4.0063 -6.8128 1.2070
H 2.2118 -6.7631 1.2702
H 1.8839 -3.5985 0.8585
H 0.9385 -4.8633 0.0251
H 1.8431 -3.6367 -0.9173
H 3.9501 -6.7926 -1.3456
H 3.0889 -5.4800 -2.2132
H 2.1537 -6.7408 -1.3180
