31
 
C 0.9010 -0.6430 -0.0020
N -0.3394 -1.1009 -0.0076
C -0.6675 -2.5208 -0.0180
C 0.6296 -3.3987 -0.0197
C -1.1270 -0.0018 -0.0020
C -0.2956 1.1187 0.0085
N 0.9809 0.6826 0.0085
C 2.2392 1.4331 0.0191
C 3.4774 0.4928 0.0141
Au 2.6584 -1.8814 -0.0135
C 4.4159 -3.1199 -0.0250
N 5.6791 -2.6558 -0.0228
H 5.9841 -1.6578 -0.0173
C 6.4594 -3.7526 -0.0267
Cl 8.2124 -3.7289 -0.0231
C 5.6490 -4.8687 -0.0318
Cl 6.1605 -6.5458 -0.0356
N 4.3674 -4.4643 -0.0313
H -1.2789 -2.7383 -0.9213
H -1.2845 -2.7478 0.8792
H 1.2615 -3.2171 -0.9008
H 0.3072 -4.4599 -0.0180
H 1.2654 -3.2182 0.8582
H -2.2092 -0.0037 -0.0052
H -0.5979 2.1584 0.0154
H 2.2696 2.0704 0.9287
H 2.2763 2.0897 -0.8761
H 3.4934 -0.1676 0.8965
H 4.3988 1.1081 0.0295
H 3.5058 -0.1442 -0.8857
H 3.5110 -5.0611 -0.0330
