37
 
C 0.9010 -0.6430 -0.0020
N -0.3409 -1.1052 -0.0213
C -0.6728 -2.5207 -0.0491
C 0.6200 -3.3898 -0.0367
C -1.1376 -0.0133 -0.0125
C -0.3179 1.1114 0.0154
N 0.9611 0.6854 0.0199
C 2.2013 1.4517 0.0427
C 3.4282 0.5135 0.0256
Au 2.6584 -1.8814 -0.0135
C 4.4159 -3.1199 -0.0250
N 4.5064 -4.4834 -0.0032
C 3.4812 -5.5159 0.0477
C 5.8264 -4.7729 -0.0209
Cl 6.5243 -6.3881 0.0015
C 6.5369 -3.6068 -0.0560
Cl 8.2925 -3.4740 -0.0927
N 5.6656 -2.5801 -0.0588
C 6.0319 -1.1712 -0.1075
H -1.2693 -2.7324 -0.9639
H -1.3012 -2.7560 0.8376
H 1.2673 -3.2040 -0.9056
H 0.2906 -4.4495 -0.0431
H 1.2438 -3.2077 0.8503
H -2.2197 -0.0240 -0.0253
H -0.6283 2.1487 0.0292
H 2.2243 2.0807 0.9588
H 2.2345 2.1159 -0.8473
H 3.4396 -0.1601 0.8969
H 4.3397 1.1438 0.0427
H 3.4379 -0.1150 -0.8783
H 2.4766 -5.0908 0.0688
H 3.6297 -6.1330 0.9615
H 3.5816 -6.1807 -0.8377
H 7.1321 -1.0376 -0.1452
H 5.6743 -0.6620 0.8066
H 5.6199 -0.7140 -1.0290
