69
 
C 0.9010 -0.6430 -0.0020
N 0.2327 -0.3257 1.1052
C 0.6146 -0.7433 2.4509
C 1.9111 -1.6179 2.3993
C 0.8010 0.5057 3.3311
C -0.8069 0.4409 0.7035
C -0.7340 0.5790 -0.6708
N 0.3448 -0.1054 -1.1043
C 0.8167 -0.2544 -2.4865
C -0.2535 -0.9398 -3.3426
C 1.1751 1.1124 -3.0776
Au 2.6584 -1.8814 -0.0135
C 4.4159 -3.1199 -0.0250
N 5.7558 -2.8016 0.0521
C 6.3403 -1.4295 0.1090
C 5.5596 -0.6942 1.1804
C 5.8065 -1.4172 2.5266
C 7.2446 -1.1418 2.9651
C 8.2550 -1.6370 1.9119
C 7.8667 -1.2214 0.4710
C 6.3866 -3.9965 0.1791
C 5.4402 -5.0130 0.1615
N 4.2227 -4.4579 0.0077
C 2.8750 -5.0626 -0.0455
C 2.2286 -4.7886 -1.4212
C 2.8081 -5.7114 -2.5150
C 2.5323 -7.1770 -2.1520
C 3.2524 -7.5210 -0.8451
C 2.7869 -6.5850 0.2879
H -0.2164 -1.3439 2.8798
H 2.7507 -1.0639 1.9806
H 1.7809 -2.5145 1.7761
H 2.1721 -1.9340 3.4283
H 1.6122 1.1541 2.9366
H 1.0330 0.2194 4.3769
H -0.1356 1.1088 3.3534
H -1.5581 0.8769 1.3483
H -1.4138 1.1336 -1.3057
H 1.7312 -0.8903 -2.5007
H -1.1855 -0.3355 -3.3639
H -0.4854 -1.9439 -2.9295
H 0.1098 -1.0633 -4.3856
H 0.2883 1.7814 -3.0861
H 1.5385 0.9949 -4.1212
H 1.9782 1.5874 -2.4761
H 6.1792 -0.9538 -0.8836
H 4.5060 -0.7128 0.8708
H 5.8499 0.3772 1.2365
H 5.6550 -2.5194 2.4520
H 5.0931 -1.0532 3.2859
H 7.4546 -1.6361 3.9394
H 7.3361 -0.0444 3.1093
H 8.3205 -2.7382 1.9569
H 9.2633 -1.2315 2.1766
H 8.5771 -1.6672 -0.2586
H 8.0441 -0.1194 0.4193
H 7.4500 -4.1415 0.3099
H 5.6326 -6.0710 0.2745
H 2.2791 -4.5320 0.7287
H 2.3598 -3.7196 -1.6931
H 1.1368 -4.9819 -1.3614
H 3.9048 -5.5578 -2.6303
H 2.3230 -5.4841 -3.4876
H 2.8856 -7.8528 -2.9615
H 1.4344 -7.3328 -2.0399
H 4.3450 -7.4435 -1.0079
H 3.0259 -8.5769 -0.5705
H 3.3208 -6.8198 1.2332
H 1.7116 -6.8206 0.4531
