77
 
C 0.9010 -0.6430 -0.0020
N -0.4049 -1.1449 0.0102
C -0.9475 -2.5383 0.1292
C -0.2188 -3.5433 0.8305
C 1.0451 -3.2858 1.4385
C -0.6052 -4.8594 0.9270
C -1.7530 -5.2959 0.3410
C -2.0466 -6.7612 0.4316
C -2.5709 -4.3702 -0.3173
C -2.2064 -2.9935 -0.4205
C -3.1714 -2.1112 -1.1651
C -1.1702 -0.0340 -0.0083
C -0.3885 1.0877 -0.0216
N 0.9206 0.7547 0.0195
C 2.0472 1.7423 -0.0252
C 2.0078 3.0980 0.4911
C 0.8624 3.7722 1.2004
C 3.1634 3.9246 0.4049
C 4.3481 3.4734 -0.1772
C 5.6034 4.2818 -0.2454
C 4.3879 2.2153 -0.7047
C 3.2830 1.3889 -0.6341
C 3.4868 0.0844 -1.1643
Au 2.6584 -1.8814 -0.0135
C 4.4159 -3.1199 -0.0250
N 4.8101 -3.8018 -1.0484
C 4.1300 -3.9359 -2.3277
C 2.7707 -3.1913 -2.3396
C 5.0315 -3.4763 -3.5082
C 6.0298 -4.5236 -0.7432
C 6.5283 -3.8685 0.5336
N 5.3383 -3.2627 1.0666
C 5.2629 -2.7663 2.4420
C 3.8826 -2.2202 2.7754
C 5.6194 -3.8742 3.4735
H 1.4251 -3.0991 0.4999
H 1.6724 -4.1620 1.6880
H 0.9616 -2.5187 2.2408
H 0.0319 -5.5649 1.4531
H -1.2271 -7.3064 0.9614
H -2.0999 -7.1853 -0.5899
H -2.9809 -6.9269 0.9959
H -3.4867 -4.7365 -0.7636
H -4.0397 -2.6811 -1.5597
H -2.6618 -1.6240 -2.0211
H -3.6296 -1.3791 -0.4787
H -2.2371 0.0249 0.0219
H -0.8149 2.0721 -0.0890
H -0.0258 3.1724 1.3988
H 0.5715 4.6790 0.6228
H 1.2038 4.0889 2.2071
H 3.1509 4.9263 0.8180
H 5.4733 5.2805 0.2098
H 5.9063 4.3886 -1.3091
H 6.4125 3.7377 0.2948
H 5.3098 1.8526 -1.1527
H 4.4461 -0.1538 -1.6564
H 2.6378 -0.0985 -1.8632
H 3.6222 -0.3084 -0.1567
H 3.9544 -5.0241 -2.4834
H 2.8612 -2.1402 -2.1646
H 2.1104 -3.4664 -1.5245
H 2.3080 -3.4004 -3.3366
H 5.1922 -2.3783 -3.4991
H 4.5614 -3.7555 -4.4771
H 6.0296 -3.9705 -3.5130
H 6.8287 -4.4848 -1.5119
H 5.7384 -5.5804 -0.5522
H 7.2166 -3.0290 0.2929
H 7.0404 -4.6108 1.1797
H 6.0143 -1.9612 2.5594
H 3.1801 -3.0655 2.7542
H 3.5899 -1.4146 2.0788
H 3.8641 -1.8203 3.8092
H 4.9192 -4.7378 3.4269
H 5.5872 -3.4616 4.5063
H 6.6520 -4.2574 3.3341
