52
 
P 0.9290 0.0642 0.0289
C 0.2250 -1.6385 0.4349
C -1.2829 -1.9036 0.5770
C 0.7890 -2.6761 -0.5506
C 0.4235 1.2213 1.4042
C -1.1061 1.4172 1.5858
C 1.0294 0.8243 2.7356
C 0.4486 0.4906 -1.7410
C -1.0764 0.6271 -1.9439
C 1.0376 1.8406 -2.2103
Au 3.3890 0.0642 0.0289
N 5.4890 0.0642 0.0289
C 5.6198 1.5046 -0.2828
C 6.1630 -0.0994 1.3238
C 6.0199 -0.5407 -1.2004
C 5.2859 -0.4231 -2.4259
C 5.8176 -0.8532 -3.6547
C 7.0820 -1.4268 -3.7066
C 7.8249 -1.5600 -2.5326
C 7.3113 -1.1174 -1.2940
H 0.6718 -1.8893 1.4210
H -1.8520 -1.7768 -0.3489
H -1.7492 -1.3632 1.3985
H -1.4353 -2.9681 0.8547
H 0.3265 -2.5680 -1.5539
H 0.5676 -3.7056 -0.1860
H 1.8930 -2.5898 -0.6418
H 0.8192 2.2202 1.1230
H -1.6193 0.5399 1.9865
H -1.6243 1.7474 0.6725
H -1.3095 2.1994 2.3456
H 0.6610 -0.1747 3.0449
H 0.7266 1.5652 3.5094
H 2.1341 0.8265 2.6494
H 0.8215 -0.3096 -2.4073
H -1.5047 1.4928 -1.4035
H -1.6236 -0.2701 -1.6694
H -1.3134 0.7977 -3.0144
H 0.6716 2.6930 -1.5916
H 0.7068 2.0517 -3.2561
H 2.1429 1.8366 -2.2101
H 5.3121 2.1556 0.5629
H 4.9554 1.8045 -1.1230
H 6.6721 1.7801 -0.5534
H 5.4419 0.1589 2.1325
H 6.9807 0.6578 1.4795
H 6.6361 -1.0822 1.4739
H 4.3115 0.0479 -2.4588
H 5.2606 -0.7267 -4.5796
H 7.4892 -1.7532 -4.6616
H 8.8166 -1.9903 -2.5968
H 7.9460 -1.2034 -0.4281
