54
 
C 2.3270 0.0340 0.0000
N 1.5443 1.1313 -0.0490
C 2.0482 2.5060 -0.0629
C 3.0619 2.6641 -1.1977
C 3.6254 4.0859 -1.3007
C 4.5457 4.1957 -2.5160
C 0.2742 0.6558 -0.0423
C 0.3050 -0.7207 0.0036
C -0.8766 -1.4817 0.0322
C -2.1022 -0.8029 0.0145
C -2.1369 0.6040 -0.0280
C -0.9422 1.3525 -0.0562
N 1.5911 -1.1450 0.0279
C 2.0123 -2.5965 0.0647
C 2.6864 -2.9332 1.3703
C 2.0481 -2.4632 2.5155
C 2.6921 -2.4913 3.7410
C 3.9500 -3.0802 3.8619
C 4.5387 -3.7055 2.7572
C 3.9184 -3.6250 1.4966
Au 4.4769 0.0580 0.0014
N 6.5767 0.0815 0.0028
C 6.9664 1.2930 0.7398
C 6.9224 -1.1929 0.6547
C 7.3193 0.1395 -1.2756
H 2.5701 2.7090 0.8969
H 1.2090 3.2272 -0.1656
H 2.5372 2.4237 -2.1506
H 3.9148 1.9505 -0.9978
H 4.1965 4.3266 -0.3784
H 2.8033 4.8276 -1.4145
H 5.3706 3.4556 -2.4430
H 4.9812 5.2148 -2.5782
H 3.9715 4.0033 -3.4491
H -0.8862 -2.5610 0.0745
H -3.0267 -1.3684 0.0376
H -3.0958 1.1062 -0.0362
H -0.9858 2.4309 -0.0826
H 2.6428 -2.8683 -0.8084
H 1.1239 -3.2603 0.0070
H 1.0701 -2.0093 2.4364
H 2.2128 -2.0203 4.5841
H 4.4580 -3.0543 4.8160
H 5.4927 -4.2085 2.8825
H 4.4164 -4.0797 0.6456
H 6.5095 1.2412 1.7551
H 6.5943 2.2174 0.2565
H 8.0677 1.3298 0.9100
H 6.4100 -1.2400 1.6425
H 8.0132 -1.2852 0.8509
H 6.5525 -2.0562 0.0628
H 7.2660 1.1207 -1.7859
H 7.0358 -0.6947 -1.9493
H 8.4119 -0.0246 -1.0603
