31
 
C -0.2634 -1.1629 -0.0177
N 0.1065 -0.2214 0.9877
C 0.5346 -0.4590 2.4277
C 0.0746 1.0306 0.3458
Cl 0.4354 2.7451 0.8776
C -0.3152 0.8319 -0.9599
Cl -0.5638 2.0831 -2.2061
N -0.5040 -0.4808 -1.1806
C -0.9519 -0.9974 -2.4720
Au -0.5300 -3.4413 0.0019
N -0.7824 -5.5170 -0.0338
C -0.7449 -6.2886 1.1105
O -0.4591 -5.7328 2.3221
C -0.1791 -4.3788 2.4801
C -0.9461 -7.6894 1.0125
C -0.9800 -8.3090 -0.2258
C -1.0416 -7.5369 -1.3527
C -1.0470 -6.1424 -1.2281
H 0.5197 -1.5317 2.7325
H -0.0971 0.0682 3.1869
H 1.5843 -0.1181 2.6743
H -1.0848 -0.1720 -3.2055
H -1.9328 -1.4953 -2.3832
H -0.2086 -1.6847 -2.8913
H 0.0157 -4.1168 3.5399
H -1.0188 -3.7505 2.1226
H 0.7167 -4.1214 1.8928
H -1.0250 -8.3138 1.8777
H -0.9858 -9.3837 -0.3282
H -1.1126 -8.0362 -2.3091
H -1.2792 -5.5803 -2.1079
