21
 
C -0.3280 -1.0820 0.0030
N 0.9494 -0.6650 -0.0736
H 1.8053 -1.2604 -0.1208
C 0.8853 0.6795 -0.0535
Cl 2.2759 1.7455 -0.1115
C -0.4397 1.0553 0.0205
Cl -1.0746 2.6896 0.0468
N -1.1952 -0.0552 0.0652
Au -0.9444 -3.1417 0.0167
O -1.5321 -5.1056 0.0297
C -0.5094 -5.8077 -0.5938
C -0.3915 -5.3649 -2.0512
C 0.7735 -5.5348 0.1500
H -2.2361 -0.1153 0.1159
H -0.7578 -6.8932 -0.5699
H -0.1181 -4.2889 -2.1030
H -1.3552 -5.5182 -2.5812
H 0.3920 -5.9610 -2.5675
H 0.9350 -4.4189 0.1226
H 1.6008 -6.1069 -0.3275
H 0.6680 -5.9042 1.1942
