47
 
N -1.4054 -0.0798 -0.0302
C -0.6375 0.8571 -0.6785
C 0.7600 0.7602 -0.7523
C 1.5752 1.6076 -1.6718
C 1.3742 -0.1443 0.0408
C 0.6247 -0.9175 0.9081
C -0.7656 -0.9818 0.7656
Au -3.4708 -0.2008 -0.2751
P -5.8390 -0.3058 -0.5732
N -6.4339 -1.8551 -1.2422
C -5.8079 -2.0466 -2.5574
C -6.1568 -2.9823 -0.3929
O -6.3608 0.8726 -1.5206
C -6.4363 2.1295 -0.9447
C -5.5718 3.1476 -1.3678
C -5.6428 4.4190 -0.8253
C -6.5733 4.7084 0.1509
C -7.4528 3.7402 0.5855
C -7.4017 2.4517 0.0478
C -8.3542 1.4247 0.4843
C -9.7194 1.7052 0.5491
C -10.6132 0.7343 0.9496
C -10.1645 -0.5161 1.3083
C -8.8230 -0.7944 1.2880
C -7.8973 0.1442 0.8494
O -6.5885 -0.2123 0.8393
H -1.0949 1.6903 -1.1382
H 0.9218 2.2669 -2.2327
H 2.1196 0.9778 -2.3824
H 2.2928 2.2024 -1.1189
H 2.4219 -0.2250 -0.0104
H 1.1176 -1.4712 1.6575
H -1.3168 -1.7404 1.2673
H -6.0251 -1.2086 -3.2188
H -6.1800 -2.9574 -3.0253
H -4.7302 -2.1299 -2.4442
H -6.6197 -2.8404 0.5726
H -5.1293 -3.0968 -0.2724
H -6.5245 -3.8985 -0.8396
H -4.8519 2.9435 -2.1109
H -4.9822 5.1716 -1.1588
H -6.6160 5.6775 0.5633
H -8.1569 3.9765 1.3383
H -10.0777 2.6596 0.2753
H -11.6433 0.9522 0.9899
H -10.8481 -1.2564 1.6154
H -8.4833 -1.7729 1.5330
