44
 
P 0.9435 0.0335 0.0754
O -0.2490 -0.5378 -0.9883
C 0.2340 -0.1885 -2.2939
O 0.4746 -0.8755 1.4390
C 1.0961 -0.3198 2.5738
O 0.5224 1.6452 -0.3461
C 1.0594 2.5509 0.5557
Au 3.4035 0.0335 0.0754
C 5.5535 0.0335 0.0754
N 6.3339 1.1216 0.0658
C 5.8551 2.4953 0.0711
C 6.3640 3.2509 -1.1604
C 4.3182 2.4778 0.1161
C 7.6046 0.6700 0.0679
C 7.5630 -0.7140 0.0731
N 6.2653 -1.0945 0.0738
C 5.6947 -2.4416 0.0858
C 4.1319 -2.3804 0.0837
C 6.2159 -3.2409 -1.1180
H -0.0944 -0.9146 -3.0604
H 1.3544 -0.1640 -2.4071
H -0.1442 0.8178 -2.5816
H 0.6400 -0.7666 3.4813
H 0.9216 0.7681 2.6896
H 2.1799 -0.5568 2.5793
H 1.0320 3.5636 0.1031
H 2.0766 2.3067 0.7112
H 0.5407 2.5603 1.5261
H 6.2467 3.0037 0.9832
H 5.9946 2.7654 -2.0875
H 7.4757 3.2596 -1.1785
H 6.0159 4.3056 -1.1361
H 3.8455 1.9657 -0.7314
H 3.9615 3.5305 0.1919
H 3.9995 1.8756 0.9725
H 8.4894 1.2942 0.0671
H 8.4149 -1.3812 0.0746
H 6.0454 -2.9511 1.0111
H 3.7374 -1.8930 -0.8232
H 3.7409 -1.8235 0.9465
H 3.7386 -3.4150 0.1401
H 5.8746 -2.7839 -2.0702
H 5.8610 -4.2914 -1.0665
H 7.3287 -3.2658 -1.1218
