27
 
N -0.6590 -1.2280 -0.0510
C 0.6630 -1.1487 0.2554
F 1.3996 -2.2819 0.3528
C 1.2517 0.0984 0.4912
C 0.4647 1.2507 0.4139
C -0.8886 1.1459 0.0866
C -1.4358 -0.1167 -0.1523
Au -1.5756 -3.1044 -0.2726
N -2.4923 -4.9807 -0.4941
C -1.7439 -6.0791 -0.2334
C -2.2636 -7.3469 -0.4540
C -3.5588 -7.4856 -0.9858
O -4.0836 -8.7047 -1.2760
C -3.4038 -9.8997 -1.1298
C -4.3159 -6.3294 -1.2353
C -3.7651 -5.0717 -0.9595
H 2.3008 0.1720 0.7467
H 0.8999 2.2217 0.6130
H -1.5103 2.0306 0.0339
H -2.4881 -0.2196 -0.3829
H -0.7382 -5.9644 0.1474
H -1.6434 -8.2027 -0.2309
H -4.0508 -10.7432 -1.4401
H -3.1167 -10.0441 -0.0662
H -2.4897 -9.9012 -1.7651
H -5.3103 -6.3986 -1.6602
H -4.3198 -4.1683 -1.1798
