82
 
N -1.3900 -0.1120 -0.0540
C -0.5396 0.1399 -1.1179
C 0.8517 0.0340 -1.0037
C 1.7319 0.1924 -2.2195
C 1.4000 -0.2742 0.2383
C 0.5536 -0.5350 1.3147
C -0.8380 -0.5008 1.1350
Au -3.4756 -0.2017 -0.2821
C -5.6110 -0.2936 -0.5156
N -6.3631 0.8345 -0.6942
C -6.0303 2.3701 -0.6306
C -6.8753 3.4717 -1.1712
C -8.1421 3.3024 -2.0311
C -8.7521 4.6348 -2.5807
C -7.7760 2.5009 -3.2827
C -6.4613 4.8512 -1.0273
C -5.3024 5.2572 -0.4424
C -4.4529 4.3290 -0.0157
C -4.7633 2.9718 -0.1275
C -3.5730 2.2361 0.1073
C -3.8863 1.3712 1.3628
C -3.4057 1.7635 -1.4035
C -7.7381 0.3178 -0.7048
C -7.6108 -1.1538 -1.0815
N -6.3104 -1.5255 -0.5831
C -5.8959 -2.7493 0.0685
C -4.6105 -3.4056 -0.2054
C -3.5365 -3.0233 -1.2811
C -2.7548 -4.2841 -1.8286
C -4.0631 -2.3754 -2.5718
C -4.2907 -4.5444 0.5813
C -5.1270 -5.0403 1.5533
C -6.3507 -4.4661 1.7743
C -6.7788 -3.3496 1.0513
C -8.1928 -2.8432 1.3651
C -9.2295 -3.6637 0.5369
C -8.6129 -2.8414 2.8360
H -0.8947 0.3130 -2.1213
H 1.1388 0.4178 -3.1332
H 2.2668 -0.7641 -2.4103
H 2.4739 1.0033 -2.0796
H 2.4751 -0.3456 0.3602
H 0.9766 -0.7895 2.2778
H -1.4734 -0.7367 1.9760
H -8.9295 2.8082 -1.4352
H -8.0052 5.1819 -3.2117
H -9.0817 5.3046 -1.7564
H -9.6210 4.4623 -3.2419
H -7.0086 3.0529 -3.8695
H -8.6767 2.3569 -3.9161
H -7.3597 1.5130 -3.0365
H -6.9843 5.7084 -1.3955
H -5.0104 6.2992 -0.3820
H -3.4938 4.6927 0.3561
H -2.6065 2.7669 0.3324
H -4.9378 1.0356 1.4116
H -3.7655 1.9889 2.2683
H -3.2734 0.4900 1.5844
H -4.1876 1.0997 -1.7431
H -2.5809 1.1755 -1.5945
H -3.4106 2.5253 -2.1901
H -8.4952 0.7378 -1.3766
H -8.1200 0.3731 0.3427
H -7.5940 -1.3027 -2.1827
H -8.4882 -1.7186 -0.8159
H -2.8517 -2.2919 -0.7954
H -3.4734 -5.0417 -2.2304
H -2.1046 -4.7892 -1.0896
H -2.0563 -4.0397 -2.6596
H -4.7102 -3.0770 -3.1410
H -3.2066 -2.0989 -3.2339
H -4.5864 -1.4389 -2.3966
H -3.3783 -5.1033 0.4841
H -4.8263 -5.9007 2.1370
H -6.9650 -4.9098 2.5386
H -8.2154 -1.7590 1.1982
H -9.2002 -4.7358 0.8140
H -9.0534 -3.6694 -0.5614
H -10.2553 -3.2686 0.6964
H -8.7405 -3.8638 3.2391
H -9.6025 -2.3351 2.9154
H -7.8826 -2.2658 3.4410
