46
 
N -0.6790 1.1930 0.0010
C 0.0284 0.8509 -1.1076
F 0.0300 1.6791 -2.1805
C 0.6945 -0.3761 -1.1632
C 0.6656 -1.2172 -0.0485
F 1.3266 -2.4008 -0.0737
C -0.0466 -0.8346 1.0918
C -0.7428 0.3789 1.0874
F -1.4295 0.7777 2.1854
Au -1.6914 3.0329 0.0055
P -2.8773 5.1881 0.0107
C -2.7382 6.2447 1.4722
C -2.1186 7.5102 1.4066
C -1.8231 8.2129 2.5852
C -2.1432 7.6626 3.8292
C -2.7616 6.4126 3.8988
C -3.0521 5.7051 2.7278
C -2.3302 6.0143 -1.5008
C -3.3091 6.4095 -2.4412
C -2.9407 6.9633 -3.6684
C -1.5916 7.1257 -3.9752
C -0.6145 6.7640 -3.0393
C -0.9808 6.2158 -1.7994
C -4.6496 4.8657 0.1411
C -5.1554 3.5633 0.0752
C -6.5369 3.3701 -0.0631
C -7.3992 4.4664 -0.1391
C -6.8680 5.7538 -0.0729
O -7.6029 6.7222 -0.1716
N -5.5117 5.9271 0.0646
H 1.2265 -0.6706 -2.0590
H -0.0585 -1.4713 1.9670
H -1.8090 7.9371 0.4616
H -1.3170 9.1706 2.5413
H -1.8941 8.1941 4.7404
H -2.9870 5.9759 4.8629
H -3.4780 4.7137 2.8021
H -4.3657 6.2827 -2.2472
H -3.7013 7.2493 -4.3879
H -1.3073 7.5283 -4.9398
H 0.4292 6.8940 -3.2856
H -0.2195 5.9216 -1.0926
H -4.4898 2.7115 0.0672
H -6.9417 2.3703 -0.1474
H -8.4656 4.3172 -0.2717
H -5.1328 6.9024 0.0520
