28
 
N 0.9766 -0.0597 0.0767
C 0.5140 1.3329 0.1528
C 0.5138 -0.6895 -1.1677
C 0.5185 -0.8229 1.2453
Au 3.0766 -0.0597 0.0767
N 5.1766 -0.0597 0.0767
C 5.8420 1.1228 0.0448
N 7.1941 1.1389 -0.0703
C 7.9096 -0.0175 -0.1464
O 9.2537 0.0101 -0.3124
C 9.9698 1.1739 -0.5089
C 7.2413 -1.2439 -0.0785
C 5.8493 -1.2386 0.0288
H -0.5985 1.3846 0.1547
H 0.8995 1.9130 -0.7129
H 0.8964 1.8156 1.0774
H -0.5986 -0.7120 -1.2142
H 0.8963 -1.7301 -1.2380
H 0.8991 -0.1301 -2.0470
H -0.5939 -0.8530 1.2911
H 0.9050 -0.3632 2.1798
H 0.9054 -1.8632 1.2002
H 5.2935 2.0534 0.0803
H 11.0465 0.9335 -0.6228
H 9.8417 1.8527 0.3603
H 9.6237 1.6864 -1.4340
H 7.7817 -2.1808 -0.1363
H 5.3003 -2.1709 0.0488
