37
 
P 1.0450 0.0634 0.0629
O -0.0025 -0.6049 1.2449
C 0.5196 -1.9259 1.4584
C -0.1762 -2.6745 2.5807
O 0.5370 1.6905 0.0513
C 0.7992 2.3108 1.2739
C 2.3012 2.4162 1.5350
O 0.5703 -1.0164 -1.1898
C -0.8514 -0.9289 -1.3136
C -1.3844 -1.9430 -2.3055
Au 3.5050 0.0634 0.0629
N 5.6050 0.0634 0.0629
C 6.2482 0.6206 1.1234
C 7.6408 0.7281 1.1230
C 8.3596 0.2598 0.0214
C 7.6811 -0.3138 -1.0570
C 6.2858 -0.4028 -1.0181
H 1.6136 -1.9265 1.6952
H 0.3495 -2.5640 0.5633
H 0.0716 -2.2312 3.5651
H 0.1813 -3.7321 2.5744
H -1.2714 -2.6799 2.4137
H 0.2364 1.8282 2.1016
H 0.3918 3.3426 1.1844
H 2.7552 1.4196 1.6941
H 2.4624 3.0184 2.4480
H 2.7861 2.9046 0.6636
H -1.1656 0.0904 -1.6252
H -1.3916 -1.2059 -0.3822
H -0.9931 -1.7287 -3.3170
H -2.4968 -1.8791 -2.3202
H -1.1027 -2.9707 -1.9896
H 5.6729 0.9986 1.9585
H 8.1550 1.1822 1.9603
H 9.4382 0.3489 0.0008
H 8.2297 -0.6713 -1.9186
H 5.7431 -0.8228 -1.8544
