47
 
P 0.9240 0.0532 0.0374
O -0.1193 -0.9013 -0.9338
C 0.3990 -0.7294 -2.2639
C -0.3035 -1.5844 -3.3023
O 0.3979 -0.3362 1.6129
C 0.5632 -1.6910 1.9020
C 0.0043 -1.9104 3.3060
O 0.4495 1.5513 -0.6621
C -0.9726 1.6435 -0.5386
C -1.5106 2.8775 -1.2328
Au 3.3840 0.0532 0.0374
N 5.4840 0.0532 0.0374
C 6.2159 1.0963 -0.0217
C 5.6709 2.4705 -0.0411
C 4.4635 2.7624 0.6200
C 3.9595 4.0689 0.6187
C 4.6265 5.0779 -0.0820
C 5.8177 4.7913 -0.7532
C 6.3522 3.4988 -0.7143
N 7.5875 0.7753 -0.0458
C 7.6930 -0.6216 0.2895
C 6.2754 -1.1473 0.0308
H 1.4932 -0.9543 -2.3377
H 0.2277 0.3096 -2.6209
H -0.0529 -2.6549 -3.1696
H 0.0452 -1.2671 -4.3145
H -1.3982 -1.4231 -3.2491
H 1.6417 -1.9578 1.8996
H -0.0199 -2.3275 1.2017
H 0.5496 -1.2750 4.0385
H 0.1039 -2.9729 3.6048
H -1.0719 -1.6270 3.3390
H -1.2841 1.6586 0.5280
H -1.5134 0.8239 -1.0609
H -1.1182 3.7881 -0.7443
H -2.6226 2.8717 -1.1625
H -1.2329 2.8625 -2.3089
H 3.9336 1.9939 1.1655
H 3.0488 4.3009 1.1563
H 4.2206 6.0818 -0.1055
H 6.3270 5.5719 -1.3042
H 7.2762 3.2959 -1.2408
H 8.3577 1.4557 0.0254
H 7.9046 -0.6667 1.3834
H 8.4725 -1.1805 -0.2670
H 5.9680 -1.8792 0.8075
H 6.1846 -1.5929 -0.9838
