14
 
O 0.9143 0.0455 0.0227
C 0.4886 -0.3761 1.2858
C 1.0418 0.5491 2.3544
C -1.0299 -0.4096 1.3257
Au 0.2441 1.8592 -0.2349
C -0.4952 3.8516 -0.5610
O -0.9141 4.9804 -0.7457
H 0.8736 -1.4053 1.4670
H 0.6616 1.5788 2.1552
H 2.1535 0.5257 2.3287
H 0.7184 0.2029 3.3621
H -1.4151 0.6171 1.1336
H -1.3803 -0.7690 2.3187
H -1.4077 -1.1132 0.5525
