41
 
P 1.0347 -0.0164 -0.0924
O -0.0306 -0.4874 1.1666
C 0.4806 -1.7599 1.5911
C -0.2469 -2.3289 2.7947
O 0.5261 1.5866 -0.3662
C 0.7707 2.3837 0.7525
C 2.2701 2.5223 1.0148
O 0.5708 -1.2810 -1.1629
C -0.8484 -1.2090 -1.3195
C -1.3762 -2.3736 -2.1325
Au 3.4947 -0.0164 -0.0924
C 5.6447 -0.0164 -0.0924
N 6.4057 -0.6825 0.7911
C 5.9368 -1.5164 1.8885
C 7.6848 -0.4221 0.4538
C 7.6772 0.4121 -0.6505
N 6.3931 0.6562 -0.9807
C 5.8922 1.4774 -2.0739
H 1.5683 -1.7231 1.8517
H 0.3284 -2.5281 0.8014
H -0.0276 -1.7375 3.7050
H 0.1115 -3.3730 2.9599
H -1.3371 -2.3655 2.5992
H 0.1933 2.0303 1.6343
H 0.3663 3.3905 0.5052
H 2.7251 1.5560 1.3131
H 2.4227 3.2439 1.8375
H 2.7643 2.8809 0.0876
H -1.1482 -0.2558 -1.8043
H -1.4050 -1.3206 -0.3634
H -0.9608 -2.3417 -3.1563
H -2.4867 -2.2992 -2.1826
H -1.1177 -3.3352 -1.6380
H 4.8256 -1.5402 1.9086
H 6.3054 -1.1083 2.8526
H 6.3152 -2.5519 1.7579
H 8.5556 -0.8076 0.9681
H 8.5407 0.8074 -1.1698
H 6.7338 1.9157 -2.6508
H 5.2659 2.2990 -1.6665
H 5.2750 0.8535 -2.7547
