62
 
P 0.9359 -0.0735 -0.0220
O -0.0896 0.3492 -1.3308
C 0.4309 1.6090 -1.7865
C -0.2626 2.1305 -3.0318
O 0.4045 -1.6550 0.3255
C 0.6684 -2.5170 -0.7378
C 2.1710 -2.6613 -0.9737
O 0.4543 1.2399 0.9779
C -0.9688 1.1763 1.1014
C -1.5099 2.3599 1.8765
Au 3.3959 -0.0735 -0.0220
P 5.8559 -0.0735 -0.0220
C 6.5225 1.6117 -0.4639
C 6.0590 2.6715 0.5705
C 8.0444 1.5997 -0.5796
C 5.8599 2.0786 -1.7896
C 6.2880 -0.4571 1.7371
C 7.1063 -1.5756 2.0655
C 7.4302 -1.8855 3.3919
C 6.9384 -1.1011 4.4274
C 6.1317 -0.0012 4.1343
C 5.8078 0.3173 2.8059
C 6.3578 -1.2043 -1.3826
C 5.5289 -1.5301 -2.4734
C 5.9265 -2.5218 -3.3957
C 7.1354 -3.2066 -3.2301
C 7.9731 -2.8755 -2.1715
C 7.5965 -1.8762 -1.2714
H 1.5283 1.5760 -2.0066
H 0.2468 2.4040 -1.0318
H 0.0045 1.5231 -3.9185
H 0.0750 3.1792 -3.2121
H -1.3595 2.1436 -2.8765
H 0.1008 -2.2182 -1.6450
H 0.2671 -3.5094 -0.4329
H 2.6150 -1.7125 -1.3266
H 2.3397 -3.4252 -1.7526
H 2.6583 -2.9582 -0.0211
H -1.2871 0.2365 1.6015
H -1.4989 1.2645 0.1275
H -1.1283 2.3385 2.9136
H -2.6224 2.3001 1.8924
H -1.2219 3.3094 1.3757
H 6.4972 2.5348 1.5733
H 4.9447 2.6698 0.6543
H 6.3553 3.6950 0.2500
H 8.4967 1.2936 0.3862
H 8.4189 2.6117 -0.8463
H 8.3629 0.8914 -1.3710
H 4.7502 2.1253 -1.6691
H 6.0733 1.4276 -2.6579
H 6.1873 3.1125 -2.0471
H 7.5092 -2.2478 1.3357
H 8.0565 -2.7435 3.6198
H 7.1750 -1.3530 5.4552
H 5.7474 0.6024 4.9437
H 5.1663 1.1615 2.6288
H 4.5785 -1.0367 -2.6128
H 5.2924 -2.7837 -4.2325
H 7.4285 -3.9931 -3.9184
H 8.9123 -3.4027 -2.0370
H 8.2833 -1.6589 -0.4734
