36
 
N -0.6590 -1.2280 -0.0510
C -0.2681 -0.5292 -1.1454
O -0.5341 -1.0126 -2.3778
C -1.2193 -2.1950 -2.5817
C 0.4276 0.6791 -0.9819
C 0.7091 1.1384 0.3105
C 0.2832 0.4025 1.4170
C -0.4115 -0.7894 1.2116
Au -1.5756 -3.1044 -0.2726
P -2.6494 -5.3024 -0.5321
N -3.6089 -5.9908 0.7955
C -4.7351 -5.0966 1.1627
C -4.0346 -7.3638 0.6159
O -3.7584 -5.5238 -1.8165
C -3.2549 -5.0240 -3.0152
O -1.3065 -6.2514 -0.0807
C -0.3888 -6.2426 -1.1573
H -1.3388 -2.3446 -3.6732
H -2.2089 -2.1499 -2.1000
H -0.6755 -3.0508 -2.1610
H 0.7615 1.2504 -1.8381
H 1.2603 2.0589 0.4580
H 0.5009 0.7423 2.4221
H -0.7323 -1.3856 2.0560
H -4.4252 -4.0256 1.2121
H -5.1078 -5.3463 2.1822
H -5.5915 -5.1820 0.4580
H -3.1388 -8.0012 0.5012
H -4.7101 -7.4496 -0.2569
H -4.5646 -7.6932 1.5383
H -4.0288 -5.2114 -3.7898
H -2.3476 -5.5812 -3.3074
H -3.1324 -3.9272 -3.0008
H 0.6050 -6.5362 -0.7640
H -0.2422 -5.2299 -1.5903
H -0.6540 -6.9718 -1.9594
