43
 
N -0.3280 -1.0820 0.0030
C -0.0681 -0.2862 1.0519
O 0.2903 0.9153 0.6504
C 0.2764 0.9123 -0.6670
C -0.1177 -0.3375 -1.0898
Au -0.9301 -3.0938 0.0163
P -1.6353 -5.4505 0.0320
C -2.5215 -5.9650 1.5289
C -3.8393 -6.4658 1.5496
C -4.4951 -6.6602 2.7796
C -3.8500 -6.3533 3.9828
C -2.5470 -5.8598 3.9653
C -1.8914 -5.6665 2.7493
C -2.5800 -5.7404 -1.4756
C -2.7732 -4.7208 -2.4141
C -3.4959 -4.9833 -3.5899
C -4.0150 -6.2615 -3.8333
C -3.8043 -7.2850 -2.9105
C -3.0899 -7.0270 -1.7398
C -0.1303 -6.4432 0.2762
C -0.2286 -7.8501 0.2605
C 0.9140 -8.6362 0.4022
C 2.1542 -8.0278 0.5616
C 2.2365 -6.6305 0.5549
O 3.3221 -6.0919 0.6787
N 1.0976 -5.8658 0.4048
H -0.1621 -0.5872 2.0863
H 0.5388 1.7526 -1.2959
H -0.2220 -0.6876 -2.1083
H -4.3848 -6.6656 0.6393
H -5.5155 -7.0223 2.8081
H -4.3621 -6.4799 4.9297
H -2.0504 -5.6007 4.8922
H -0.8964 -5.2396 2.7580
H -2.3554 -3.7346 -2.2362
H -3.6534 -4.1999 -4.3179
H -4.5755 -6.4637 -4.7380
H -4.1935 -8.2794 -3.0999
H -2.9440 -7.8404 -1.0462
H -1.1748 -8.3510 0.1298
H 0.8382 -9.7185 0.3870
H 3.0412 -8.6409 0.6818
H 1.1786 -4.8253 0.3835
