17
 
N -0.3280 -1.0820 0.0030
C -1.0698 0.0028 -0.2699
O -0.3422 1.0976 -0.1988
C 0.8825 0.7379 0.1274
C 0.9078 -0.6329 0.2564
Au -0.9301 -3.0938 0.0163
N -1.5321 -5.1056 0.0297
C -0.7669 -6.1965 0.1905
O -1.5004 -7.2895 0.1763
C -2.7543 -6.9217 0.0094
C -2.7899 -5.5486 -0.0923
H -2.1182 -0.0235 -0.5335
H 1.7158 1.4140 0.2652
H 1.7532 -1.2558 0.5174
H 0.3073 -6.1774 0.3140
H -3.6015 -7.5935 -0.0274
H -3.6605 -4.9188 -0.2191
