43
 
N -0.3280 -1.0820 0.0030
C -1.0071 -0.0157 -0.4469
O -0.2969 1.0842 -0.3074
C 0.8466 0.7478 0.2537
C 0.8463 -0.6156 0.4456
Au -0.9301 -3.0938 0.0163
P -1.6353 -5.4505 0.0320
O -2.8311 -6.2166 1.0003
C -3.8596 -5.2644 1.3489
C -4.6720 -5.7202 2.5783
C -3.4360 -3.7866 1.6443
O -2.7655 -5.4648 -1.2436
C -2.1260 -5.2948 -2.5001
C -0.9244 -6.2378 -2.7890
C -3.1889 -5.5338 -3.5746
O -0.3356 -6.4781 0.4652
C 0.3171 -6.0597 1.6513
C -0.5572 -6.2287 2.9072
C 1.5454 -6.9623 1.8288
H -1.9821 -0.0642 -0.9127
H 1.6385 1.4357 0.5186
H 1.6204 -1.2187 0.9019
H -4.5559 -5.2602 0.4927
H -4.0936 -5.6491 3.5286
H -5.0579 -6.7514 2.4650
H -5.5519 -5.0442 2.6870
H -2.8379 -3.6887 2.5790
H -4.3503 -3.1692 1.7557
H -2.8952 -3.3006 0.8097
H -1.7924 -4.2401 -2.5883
H -1.1981 -7.3076 -2.6651
H -0.0579 -6.0068 -2.1359
H -0.5624 -6.0875 -3.8303
H -3.5450 -6.5881 -3.5514
H -2.7805 -5.3176 -4.5850
H -4.0561 -4.8647 -3.3960
H 0.6788 -5.0066 1.5591
H -0.9576 -7.2646 2.9635
H -1.3943 -5.5100 2.9160
H 0.0376 -6.0263 3.8232
H 1.2318 -8.0270 1.9212
H 2.1060 -6.6835 2.7473
H 2.2299 -6.8747 0.9600
