61
 
P -0.0940 -2.5890 -0.0020
N -1.3250 -3.1932 -1.1309
C -0.6300 -4.2533 -1.9045
C -2.3701 -3.9294 -0.3578
O 0.9517 -1.8164 -1.0123
C 1.5112 -0.6940 -0.5150
C 2.9078 -0.6333 -0.5087
C 3.5712 0.4714 0.0190
C 2.8441 1.5472 0.5218
C 1.4478 1.5231 0.4987
C 0.7462 0.4023 0.0021
C -0.7600 0.4475 0.0296
C -1.3963 1.6075 -0.4616
C -2.7898 1.7048 -0.4937
C -3.5762 0.6713 0.0075
C -2.9763 -0.4625 0.5405
C -1.5862 -0.6031 0.5397
O -1.0833 -1.7554 1.0229
Au 1.4250 -4.0575 1.2581
P 2.9440 -5.5260 2.5182
N 3.9946 -6.7711 1.7203
C 3.2191 -7.7303 0.8767
C 4.8931 -6.0995 0.7368
N 4.2610 -4.4512 3.1131
C 3.7809 -3.4114 4.0407
C 5.3223 -5.2150 3.8105
N 1.8576 -6.5761 3.5019
C 2.6064 -7.4541 4.4257
C 0.9141 -5.7881 4.3290
H 0.1882 -3.8290 -2.5162
H -1.3277 -4.7875 -2.5867
H -0.1750 -5.0392 -1.2386
H -2.9234 -3.2766 0.3361
H -1.9639 -4.7779 0.2532
H -3.1316 -4.3697 -1.0405
H 3.4810 -1.4660 -0.8960
H 4.6527 0.4899 0.0404
H 3.3649 2.4020 0.9349
H 0.9143 2.3750 0.9043
H -0.8143 2.4300 -0.8599
H -3.2636 2.5830 -0.9112
H -4.6549 0.7413 -0.0180
H -3.6003 -1.2528 0.9324
H 2.5578 -8.3947 1.4609
H 3.9180 -8.4145 0.3297
H 2.6285 -7.2320 0.0646
H 5.4746 -5.2627 1.1557
H 4.3438 -5.6733 -0.1369
H 5.6417 -6.8265 0.3485
H 3.0034 -2.7734 3.5763
H 4.6290 -2.7359 4.3096
H 3.4152 -3.8444 4.9994
H 5.8312 -5.9459 3.1579
H 4.9303 -5.7695 4.6830
H 6.1298 -4.5314 4.1514
H 3.3674 -8.0560 3.8956
H 1.9049 -8.1741 4.9075
H 3.0827 -6.8900 5.2606
H 0.2343 -5.1774 3.7052
H 1.4310 -5.1395 5.0749
H 0.2616 -6.4726 4.9249
