56
 
P 1.0725 -0.0677 0.0130
C 0.1861 1.5163 0.0531
C 0.6678 -0.5587 -1.6762
C 1.6914 -0.8635 -2.5680
C 1.4055 -1.3206 -3.8594
C 0.0788 -1.4927 -4.2628
C -0.9593 -1.2313 -3.3647
C -0.6689 -0.7696 -2.0728
C 0.5944 -0.9543 1.4931
C -0.7673 -1.2247 1.7063
C -1.1845 -1.9136 2.8445
C -0.2415 -2.3477 3.7766
C 1.1256 -2.1140 3.5535
C 1.5536 -1.4189 2.4028
Au 3.5325 -0.0677 0.0130
P 5.9925 -0.0677 0.0130
N 6.9521 1.2703 0.7755
C 6.6155 2.6096 0.2123
C 6.6098 1.4016 2.2200
N 6.4718 -1.3342 1.2015
C 6.0554 -2.6811 0.7662
C 7.9395 -1.3843 1.4152
N 6.4529 0.2677 -1.6969
C 7.9056 0.1270 -1.9255
C 5.7890 -0.6538 -2.6403
H -0.9115 1.4386 0.0444
H 0.5700 2.1654 -0.7646
H 0.5113 2.0107 1.0006
H 2.7025 -0.7652 -2.2382
H 2.2116 -1.5528 -4.5427
H -0.1425 -1.8443 -5.2635
H -1.9862 -1.3976 -3.6691
H -1.4876 -0.6028 -1.3854
H -1.5111 -0.9062 0.9883
H -2.2398 -2.1075 3.0014
H -0.5766 -2.8711 4.6652
H 1.8422 -2.4752 4.2792
H 2.6174 -1.2338 2.2005
H 6.8909 2.7217 -0.8519
H 7.1830 3.4079 0.7538
H 5.5374 2.8772 0.3473
H 6.6765 0.4643 2.7946
H 5.5740 1.7767 2.3858
H 7.3226 2.1039 2.7089
H 4.9640 -2.7403 0.5900
H 6.2895 -3.4209 1.5692
H 6.6084 -3.0150 -0.1432
H 8.3557 -0.4551 1.8418
H 8.4918 -1.5871 0.4760
H 8.1877 -2.1652 2.1684
H 8.4958 0.7562 -1.2352
H 8.1526 0.4671 -2.9588
H 8.2464 -0.9327 -1.8508
H 4.7073 -0.5137 -2.6156
H 6.0449 -1.7243 -2.4575
H 6.0905 -0.4229 -3.6902
