62
 
P 0.9334 0.0689 -0.0286
C 0.0069 1.3885 0.8109
C 0.4050 0.5225 -1.6943
C 1.3172 0.8308 -2.7073
C 0.8590 1.0239 -4.0221
C -0.5026 0.8976 -4.3280
C -1.4155 0.5945 -3.3210
C -0.9667 0.4138 -2.0135
C 0.4582 -1.4612 0.7782
C -0.9036 -1.8239 0.8501
C -1.2889 -3.0363 1.4221
C -0.3185 -3.8992 1.9283
C 1.0413 -3.5528 1.8469
C 1.4385 -2.3305 1.2637
Au 3.3934 0.0689 -0.0286
P 5.8534 0.0689 -0.0286
O 6.9433 0.6340 1.1672
C 6.3455 0.4329 2.4650
C 7.0360 1.2833 3.5491
C 4.8139 0.7211 2.6282
O 6.1544 -1.5798 0.2886
C 5.7238 -2.3588 -0.8283
C 6.3109 -1.9308 -2.2019
C 6.1517 -3.8097 -0.5967
O 6.4944 1.0259 -1.2929
C 5.8604 2.2634 -1.4560
C 6.2986 3.2145 -0.3452
C 6.3488 2.8234 -2.8029
H -1.0888 1.3022 0.7457
H 0.3613 2.3691 0.4199
H 0.3204 1.3562 1.8798
H 2.3745 0.8910 -2.4853
H 1.5595 1.2477 -4.8136
H -0.8532 1.0216 -5.3454
H -2.4687 0.4771 -3.5543
H -1.6998 0.1495 -1.2677
H -1.6798 -1.1859 0.4569
H -2.3398 -3.3069 1.4676
H -0.6276 -4.8378 2.3755
H 1.7780 -4.2424 2.2330
H 2.4964 -2.0377 1.1664
H 6.5298 -0.6269 2.7168
H 6.8182 2.3714 3.4415
H 8.1316 1.1310 3.5642
H 6.6399 0.9739 4.5444
H 4.5641 1.7995 2.5058
H 4.4921 0.3984 3.6396
H 4.1706 0.1254 1.9589
H 4.6119 -2.3445 -0.8804
H 7.4205 -1.8951 -2.1612
H 5.9211 -0.9516 -2.5381
H 6.0004 -2.6400 -2.9983
H 7.2602 -3.8828 -0.5431
H 5.8005 -4.4513 -1.4359
H 5.7149 -4.2002 0.3439
H 4.7474 2.1623 -1.5050
H 7.4095 3.2104 -0.2760
H 5.8736 2.8879 0.6226
H 5.9435 4.2438 -0.5481
H 7.4613 2.8864 -2.8161
H 5.9391 3.8393 -2.9829
H 6.0386 2.1660 -3.6441
