59
 
P 0.9322 -0.0730 0.0090
C 0.1528 1.5270 0.7612
C -1.3807 1.5731 0.8989
C 0.6926 1.7511 2.2048
C 0.6059 2.7719 -0.0197
C 0.4862 -0.0687 -1.8568
C 1.0753 1.0884 -2.6798
C 1.0812 -1.3514 -2.4793
C -1.0444 -0.1717 -2.1300
C 0.5047 -1.4254 1.0846
C -0.8407 -1.7364 1.2561
C -1.2389 -2.7394 2.1263
C -0.2937 -3.4927 2.8647
N -0.7237 -4.4708 3.8606
C -2.1282 -4.7244 4.1928
C 0.2065 -5.2245 4.6947
C 1.0879 -3.2137 2.5978
C 1.4848 -2.1842 1.7144
Au 3.3922 -0.0730 0.0090
N 5.4922 -0.0730 0.0090
C 5.4964 0.2669 1.4588
N 6.2953 0.8165 -0.6598
C 7.5017 0.3576 -0.7029
C 7.5362 -0.9637 -0.2650
C 6.2323 -1.2745 0.0739
H -1.7542 0.8241 1.6196
H -1.9132 1.4596 -0.0367
H -1.6944 2.5749 1.2678
H 0.2924 1.0062 2.9232
H 0.3565 2.7486 2.5864
H 1.8013 1.7544 2.2611
H -0.0145 2.8854 -0.9065
H 1.7034 2.7556 -0.2203
H 0.3718 3.7189 0.5100
H 2.1660 1.1647 -2.5011
H 0.6014 2.0545 -2.5552
H 0.8757 0.9186 -3.7592
H 2.1799 -1.3851 -2.3444
H 0.8723 -1.3782 -3.5765
H 0.6296 -2.2732 -2.0533
H -1.6104 0.7154 -1.8482
H -1.4974 -1.0734 -1.6568
H -1.2540 -0.2432 -3.2189
H -1.6034 -1.1881 0.7223
H -2.3040 -2.8637 2.1957
H -2.8731 -4.1594 3.6200
H -2.3109 -4.4661 5.2592
H -2.3661 -5.7987 4.0445
H 1.2696 -5.0390 4.5041
H 0.0359 -6.3131 4.5592
H 0.0337 -4.9680 5.7630
H 1.8898 -3.7497 3.0660
H 2.5475 -1.9459 1.5101
H 6.1409 1.1499 1.6787
H 4.4749 0.5661 1.7683
H 5.8039 -0.5222 2.1967
H 8.3541 0.9223 -1.0572
H 8.3886 -1.6305 -0.2220
H 5.8689 -2.2309 0.4323
