49
 
P 0.9179 0.0183 -0.0541
C 0.1115 -1.5753 0.1497
C -1.2688 -1.7351 0.2466
C -1.8094 -3.0098 0.4466
C -0.9754 -4.1300 0.5448
C 0.4062 -3.9836 0.4193
C 0.9495 -2.7115 0.2187
C 0.3823 0.6201 1.5639
C 0.7707 0.0750 2.7943
C 0.2336 0.5978 3.9854
C -0.6865 1.6547 3.9501
C -1.0548 2.2139 2.7293
C -0.5178 1.7058 1.5477
C 0.5036 0.7947 -1.6138
C -0.8420 1.0364 -1.9617
C -1.1625 1.6856 -3.1547
C -0.1420 2.1112 -4.0042
C 1.2044 1.8994 -3.6496
C 1.5402 1.2369 -2.4438
Au 3.3779 0.0183 -0.0541
N 5.4779 0.0183 -0.0541
C 6.1184 0.4611 -1.1702
C 7.5162 0.3748 -1.2668
C 8.2429 0.8222 -2.5019
C 8.2317 -0.1626 -0.1898
C 7.5548 -0.5884 0.9553
C 6.1612 -0.4903 1.0050
H -1.9196 -0.8809 0.1836
H -2.8785 -3.1257 0.5350
H -1.3997 -5.1106 0.7173
H 1.0526 -4.8534 0.4856
H 2.0284 -2.6188 0.1262
H 1.4728 -0.7450 2.8333
H 0.5188 0.1812 4.9410
H -1.1159 2.0448 4.8652
H -1.7631 3.0349 2.6942
H -0.8289 2.1568 0.6138
H -1.6524 0.7427 -1.3115
H -2.2024 1.8647 -3.4154
H -0.4032 2.6138 -4.9308
H 1.9741 2.2597 -4.3174
H 2.5916 1.0588 -2.1073
H 5.5308 0.8465 -1.9941
H 7.5475 1.2562 -3.2515
H 8.7601 -0.0451 -2.9658
H 8.9983 1.5907 -2.2356
H 9.3101 -0.2539 -0.2407
H 8.1053 -1.0071 1.7875
H 5.6214 -0.8427 1.8736
