81
 
P 1.0511 0.0200 -0.0836
C 0.3142 -1.3390 -1.0422
C -1.0427 -1.7020 -1.1151
C -1.4379 -2.7779 -1.9314
C -0.4972 -3.4795 -2.6933
C 0.8447 -3.1146 -2.6422
C 1.2452 -2.0607 -1.8195
C 0.6230 -0.3855 1.6168
C 1.6277 -0.5158 2.5799
C 1.2863 -0.6809 3.9305
C -0.0571 -0.7153 4.3234
C -1.0640 -0.5674 3.3703
C -0.7273 -0.3932 2.0259
C 0.5709 1.5012 -0.9811
C -0.7929 1.8350 -1.0558
C -1.2065 3.0104 -1.6840
C -0.2598 3.8686 -2.2428
C 1.1057 3.5526 -2.1633
C 1.5301 2.3665 -1.5266
Au 3.5111 0.0200 -0.0836
P 5.9711 0.0200 -0.0836
C 6.6736 1.6465 0.1697
C 5.7236 2.6729 0.2748
C 6.1130 3.9853 0.4999
C 7.4744 4.3031 0.6370
O 7.8907 5.5818 0.8406
C 7.0664 6.6936 0.8280
C 8.4273 3.2675 0.5580
C 8.0308 1.9375 0.3241
C 6.3626 -1.1010 1.2603
C 7.1254 -2.2512 1.0016
C 7.3816 -3.1716 2.0191
C 6.8754 -2.9564 3.3154
O 7.0601 -3.8516 4.3218
C 7.6797 -5.0796 4.1884
C 6.1408 -1.7877 3.5725
C 5.8869 -0.8639 2.5505
C 6.3975 -0.2965 -1.8053
C 7.1515 0.5653 -2.6103
C 7.4614 0.2052 -3.9207
C 7.0355 -1.0291 -4.4513
O 7.2812 -1.3850 -5.7380
C 7.8299 -0.5469 -6.6874
C 6.3238 -1.9107 -3.6318
C 6.0056 -1.5457 -2.3220
H -1.8014 -1.1822 -0.5624
H -2.4781 -3.0698 -1.9839
H -0.8051 -4.3018 -3.3290
H 1.5761 -3.6453 -3.2423
H 2.2967 -1.7944 -1.8067
H 2.6687 -0.4492 2.2865
H 2.0623 -0.7619 4.6784
H -0.3197 -0.8353 5.3673
H -2.1049 -0.5630 3.6761
H -1.5311 -0.2244 1.3290
H -1.5422 1.1977 -0.6091
H -2.2616 3.2584 -1.7282
H -0.5905 4.7811 -2.7276
H 1.8246 4.2390 -2.5913
H 2.5927 2.1128 -1.4386
H 4.6627 2.4580 0.1819
H 5.3422 4.7426 0.5675
H 7.6657 7.6070 1.0149
H 6.2904 6.6146 1.6199
H 6.5755 6.7917 -0.1657
H 9.4781 3.4943 0.6761
H 8.7654 1.1464 0.2711
H 7.5165 -2.4520 0.0115
H 7.9615 -4.0549 1.7837
H 7.6589 -5.6153 5.1591
H 8.7373 -4.9436 3.8785
H 7.1435 -5.6994 3.4359
H 5.7471 -1.6009 4.5629
H 5.3022 0.0223 2.7557
H 7.5113 1.5134 -2.2502
H 8.0356 0.9005 -4.5139
H 7.8758 -1.0678 -7.6638
H 8.8568 -0.2492 -6.3887
H 7.1930 0.3589 -6.8004
H 6.0072 -2.8771 -4.0098
H 5.4594 -2.2508 -1.7035
