58
 
P 1.0594 -0.0108 -0.0797
C 0.2989 1.5767 -0.4548
C -1.0657 1.8195 -0.6593
C -1.4800 3.0799 -1.1303
C -0.5409 4.0885 -1.3943
Cl -1.0503 5.6356 -2.0505
C 0.8139 3.8530 -1.1635
C 1.2287 2.6070 -0.6958
C 0.6844 -1.0989 -1.4808
C 1.1091 -0.7344 -2.7699
C 0.7866 -1.5278 -3.8784
C 0.0376 -2.6953 -3.7120
Cl -0.3816 -3.6755 -5.1087
C -0.3828 -3.0736 -2.4325
C -0.0620 -2.2799 -1.3189
C 0.5890 -0.3741 1.6232
C -0.7691 -0.5436 1.9440
C -1.1594 -0.8466 3.2513
C -0.1957 -0.9931 4.2513
Cl -0.6916 -1.3468 5.8977
C 1.1616 -0.8601 3.9346
C 1.5554 -0.5534 2.6232
Cu 3.5194 -0.0108 -0.0797
C 5.6694 -0.0108 -0.0797
N 6.3727 -1.0752 -0.0159
C 5.8152 -2.3806 0.2394
C 4.9206 -2.8061 -0.9015
C 7.7866 -0.7691 -0.0249
C 7.8184 0.7034 -0.4454
N 6.4780 1.1340 -0.1473
C 6.0119 2.4945 -0.1621
C 5.2465 2.7476 1.1225
H -1.7990 1.0435 -0.5107
H -2.5273 3.2678 -1.3242
H 1.5499 4.6217 -1.3742
H 2.2942 2.4300 -0.5586
H 1.6791 0.1724 -2.9226
H 1.1108 -1.2312 -4.8688
H -0.9659 -3.9782 -2.3064
H -0.4095 -2.5842 -0.3412
H -1.5319 -0.4533 1.1846
H -2.2104 -0.9696 3.4849
H 1.9090 -0.9959 4.7057
H 2.6082 -0.4640 2.3907
H 5.2167 -2.3440 1.1773
H 6.6355 -3.1175 0.3910
H 4.0702 -2.0661 -0.9757
H 4.5372 -3.8271 -0.6889
H 5.5437 -2.8575 -1.8250
H 8.3866 -1.4048 -0.7111
H 8.1525 -0.8730 1.0204
H 7.9230 0.7631 -1.5547
H 8.6286 1.2794 0.0459
H 5.3425 2.6679 -1.0298
H 6.8842 3.1828 -0.2387
H 4.3286 2.0925 1.1046
H 4.9647 3.8182 1.1906
H 5.9034 2.5029 1.9899
