37
 
P 1.0702 -0.3111 -0.6319
Cl -0.1346 -0.4996 -2.2927
Cl 0.5902 -2.1094 0.2856
Cl 0.2933 1.4836 0.1108
Cu 3.3433 -0.2205 0.0102
P 5.6681 0.1818 -0.0660
N 6.7086 1.4145 -0.7760
C 6.2162 1.5527 -2.1657
C 6.4052 2.7140 -0.1076
O 6.1286 -1.1569 -0.9774
C 6.2146 -2.3866 -0.3789
C 5.4036 -3.4146 -0.8771
C 5.3934 -4.6849 -0.2884
C 6.2258 -4.9684 0.7912
C 7.0863 -3.9848 1.2759
C 7.0872 -2.6802 0.7155
C 8.0212 -1.6761 1.2834
C 9.3698 -2.0678 1.5072
C 10.3024 -1.1541 2.0004
C 9.8982 0.1381 2.3224
C 8.5690 0.5238 2.1542
C 7.6203 -0.3446 1.6182
O 6.3566 0.1509 1.4564
H 6.3916 0.6164 -2.7285
H 6.7426 2.3706 -2.6962
H 5.1134 1.7734 -2.2231
H 6.6609 2.6945 0.9723
H 5.3332 3.0378 -0.1946
H 6.9929 3.5343 -0.5737
H 4.7533 -3.2152 -1.7147
H 4.7292 -5.4514 -0.6651
H 6.2024 -5.9514 1.2535
H 7.7243 -4.2401 2.1193
H 9.7227 -3.0686 1.2637
H 11.3413 -1.4413 2.1295
H 10.6148 0.8529 2.6998
H 8.2666 1.5242 2.4156
