84
 
P 1.0433 0.0698 -0.0571
C 0.2760 -1.4972 0.4009
C -1.0952 -1.6074 0.7146
C -2.0121 -0.4305 0.8683
C -1.6612 -2.8750 0.8800
C -0.9080 -4.0406 0.7235
C -1.5646 -5.3830 0.8577
C 0.4562 -3.9494 0.4432
C 1.0782 -2.6964 0.2996
C 2.5766 -2.7025 0.0077
C 0.6535 0.9631 1.6306
C 0.6259 0.4792 2.9935
C 1.0892 -0.8650 3.4377
C 0.1006 1.3044 4.0469
C -0.3379 2.6142 3.8127
C -0.9301 3.5348 4.8433
C -0.2361 3.1116 2.5534
C 0.2138 2.3163 1.5158
C 0.2526 2.9819 0.2575
C 0.5918 0.5868 -1.9015
C -0.2095 -0.2928 -2.7599
C -0.6977 -1.7018 -2.5272
C -0.6518 0.1155 -4.0365
C -0.3684 1.3490 -4.5592
C -0.8706 1.7942 -5.8988
C 0.4116 2.2006 -3.8455
C 0.9383 1.8886 -2.5777
C 1.7842 3.0987 -2.1516
Cu 3.5033 0.0698 -0.0571
N 5.6033 0.0698 -0.0571
C 6.2285 -0.2196 1.1161
C 7.6226 -0.2456 1.1874
C 8.3674 0.0127 0.0372
C 7.7048 0.2959 -1.1655
C 8.4111 0.5335 -2.3418
C 7.7145 0.8066 -3.5201
C 6.2956 0.8592 -3.5411
C 5.6097 1.1643 -4.8295
O 6.2823 1.3434 -5.8352
C 4.1180 1.2679 -4.9734
C 5.5825 0.6120 -2.3382
C 6.2928 0.3302 -1.1817
H -1.5506 0.5436 0.6771
H -2.3825 -0.4304 1.9151
H -2.8499 -0.5019 0.1529
H -2.7163 -2.9501 1.1006
H -2.6368 -5.2772 1.1281
H -1.0586 -5.9656 1.6534
H -1.5055 -5.9407 -0.1023
H 1.0306 -4.8653 0.3269
H 2.9844 -3.7398 -0.0655
H 3.1270 -2.2122 0.8394
H 2.8339 -2.1977 -0.9465
H 1.6106 -1.4133 2.6418
H 0.2226 -1.4406 3.8273
H 1.8135 -0.7193 4.2716
H 0.0294 0.9312 5.0608
H -1.0315 3.0515 5.8305
H -1.9421 3.8566 4.4977
H -0.3075 4.4535 4.9325
H -0.5433 4.1402 2.3685
H -0.0144 4.0584 0.2555
H -0.4337 2.4531 -0.4280
H 1.3396 2.8954 0.1022
H -0.4119 -2.2424 -1.6591
H -0.2940 -2.3459 -3.3372
H -1.8088 -1.7233 -2.5718
H -1.2546 -0.5481 -4.6481
H -1.4539 1.0020 -6.4076
H -0.0021 2.0725 -6.5339
H -1.5157 2.6903 -5.7641
H 0.5968 3.1585 -4.3274
H 2.0835 3.7647 -2.9958
H 2.7532 2.8461 -1.6904
H 1.1538 3.9117 -1.7306
H 5.6362 -0.4283 1.9973
H 8.1194 -0.4700 2.1228
H 9.4500 -0.0139 0.0870
H 9.4962 0.4995 -2.3495
H 8.2993 0.9769 -4.4168
H 3.5620 1.1150 -4.0348
H 3.7729 0.5033 -5.6985
H 3.8599 2.2782 -5.3516
H 4.4802 0.6117 -2.2126
