93
 
P 1.0512 0.0819 0.0261
C 0.2535 -1.4933 0.4683
C -1.1244 -1.6876 0.5451
C -1.6430 -2.9041 1.0129
C -3.1087 -3.0357 1.2471
C -0.7850 -3.9655 1.3365
C 0.5902 -3.8044 1.2140
C 1.1042 -2.5719 0.8106
C 0.6574 0.8690 1.6023
C -0.0626 2.0830 1.5867
C -0.3077 2.7861 2.7785
C -0.9689 4.1392 2.7648
C 0.1184 2.2364 3.9937
C 0.7913 1.0100 4.0156
C 1.0728 0.3335 2.8242
C 0.4925 0.7943 -1.5341
C -0.8865 0.9198 -1.7945
C -1.3515 1.3981 -3.0252
C -2.8260 1.4348 -3.3291
C -0.4243 1.8143 -3.9854
C 0.9496 1.7354 -3.7184
C 1.4111 1.2110 -2.4999
Cu 3.5112 0.0819 0.0261
C 5.6612 0.0819 0.0261
N 6.4086 -0.9922 -0.0236
C 6.0621 -2.4296 -0.2045
C 4.8770 -2.9420 -0.8708
C 3.8208 -2.1231 -1.5543
C 4.6933 -4.3448 -1.0511
C 5.6484 -5.2696 -0.6321
C 5.5482 -6.7482 -0.8656
C 6.7854 -4.8149 -0.0298
C 7.0113 -3.4576 0.1619
C 8.3564 -3.1849 0.6895
C 7.7879 -0.5352 -0.0331
C 7.7410 0.9125 -0.3674
N 6.4020 1.2908 -0.0589
C 6.0335 2.6124 0.4114
C 6.7629 3.7807 -0.0218
C 7.9240 3.8376 -0.9990
C 6.3956 5.0482 0.4481
C 5.3360 5.2250 1.3247
C 4.9289 6.5943 1.7713
C 4.6480 4.1201 1.7917
C 4.9789 2.8245 1.3763
C 4.1779 1.7445 2.0444
H -1.8035 -0.8994 0.3038
H -3.6491 -2.1202 0.9258
H -3.2449 -3.1399 2.3441
H -3.5297 -3.9182 0.7271
H -1.1769 -4.9052 1.7082
H 1.2598 -4.6185 1.4736
H 2.1789 -2.4666 0.8101
H -0.4008 2.5058 0.6474
H -1.2418 4.4591 1.7363
H -0.2478 4.8854 3.1653
H -1.8805 4.1530 3.3984
H -0.0593 2.7661 4.9220
H 1.1197 0.5959 4.9579
H 1.6218 -0.5965 2.8505
H -1.6141 0.6326 -1.0622
H -3.4374 1.0820 -2.4695
H -3.0287 0.7535 -4.1838
H -3.1535 2.4595 -3.6001
H -0.7706 2.1976 -4.9379
H 1.6532 2.0696 -4.4676
H 2.4755 1.1320 -2.2990
H 4.0166 -1.0519 -1.5748
H 2.8289 -2.3539 -1.1486
H 3.7657 -2.4194 -2.6220
H 3.8212 -4.7243 -1.5733
H 4.6092 -7.0249 -1.3789
H 5.6213 -7.2823 0.1066
H 6.4096 -7.0721 -1.4971
H 7.5413 -5.5430 0.2549
H 8.9800 -4.0574 0.9451
H 8.2370 -2.5826 1.6044
H 8.8827 -2.8045 -0.2000
H 8.4064 -0.9685 -0.8457
H 8.2039 -0.6087 0.9894
H 7.8396 0.9575 -1.4731
H 8.5341 1.4475 0.2078
H 8.2583 2.9382 -1.4989
H 8.8224 4.2435 -0.4849
H 7.6463 4.4925 -1.8453
H 6.9400 5.9200 0.1050
H 5.5772 7.3750 1.3219
H 4.9968 6.6633 2.8760
H 3.8811 6.7848 1.4537
H 3.8330 4.2777 2.4911
H 3.5221 2.1136 2.8596
H 4.8217 0.9466 2.4744
H 3.4129 1.4373 1.3624
