44
 
P 1.0069 0.0529 0.0846
O 0.5091 -0.7616 -1.3366
C 0.8901 -0.0597 -2.4904
C 0.4939 -0.8879 -3.7034
O 0.6004 -0.2555 1.7143
C -0.7579 -0.6921 1.6968
C -1.1560 -1.3786 2.9964
C 0.2340 1.6799 0.0873
C -0.9822 1.9790 -0.5378
C -1.3938 3.3163 -0.6467
C -0.5941 4.3489 -0.1390
C 0.6151 4.0504 0.4882
C 1.0279 2.7232 0.5961
Cu 3.4669 0.0529 0.0846
N 5.5669 0.0529 0.0846
C 6.2544 -0.6006 -0.8893
O 5.5839 -1.2105 -1.8896
C 4.2092 -1.1842 -1.9628
C 7.6544 -0.6643 -0.8279
C 8.3206 -0.0702 0.2490
C 7.5900 0.5879 1.2389
C 6.1993 0.6427 1.1341
H 1.9688 0.0792 -2.5387
H 0.3948 0.9267 -2.5594
H 0.9710 -1.8920 -3.6596
H 0.8212 -0.3785 -4.6335
H -0.6087 -1.0146 -3.7242
H -0.9911 -1.4229 0.8782
H -1.4126 0.1958 1.5929
H -0.6218 -2.3438 3.1221
H -2.2508 -1.5896 2.9794
H -0.9414 -0.7109 3.8532
H -1.5845 1.1925 -0.9700
H -2.3189 3.5590 -1.1501
H -0.8997 5.3820 -0.2455
H 1.2470 4.8462 0.8656
H 1.9924 2.5105 1.0472
H 3.8879 -1.6937 -2.8937
H 3.8948 -0.1399 -1.9658
H 3.7424 -1.6859 -1.0962
H 8.2218 -1.1835 -1.5894
H 9.3994 -0.1284 0.3249
H 8.0936 1.0385 2.0851
H 5.6152 1.1316 1.9028
