48
 
P 1.0334 -0.0750 -0.0571
C 0.1347 -0.2596 -1.6221
C 0.5333 -1.5577 0.8587
C 0.5332 1.5804 0.4879
Cu 3.4934 -0.0750 -0.0571
P 5.9534 -0.0750 -0.0571
C 6.9325 -0.0159 1.4964
C 7.7032 -1.1019 1.9572
C 8.3180 -1.0616 3.2199
C 8.1846 0.0612 4.0388
F 8.7773 0.0895 5.2610
C 7.4252 1.1464 3.6034
C 6.7941 1.1059 2.3494
C 6.3927 -1.6453 -0.9017
C 7.1289 -1.6009 -2.1116
C 7.4156 -2.7731 -2.8282
C 6.9849 -4.0079 -2.3468
F 7.2337 -5.1384 -3.0585
C 6.2926 -4.0747 -1.1339
C 5.9961 -2.9023 -0.4136
C 6.3578 1.5215 -0.8612
C 5.3418 2.3896 -1.3123
C 5.6900 3.5946 -1.9758
C 7.0356 3.9293 -2.1920
F 7.3703 5.0829 -2.8318
C 8.0397 3.0657 -1.7582
C 7.7059 1.8714 -1.1032
H -0.9617 -0.2488 -1.5302
H 0.4841 -1.2090 -2.0907
H 0.4844 0.5544 -2.2988
H -0.5786 -1.5759 0.9043
H 0.9095 -1.4702 1.9000
H 0.9082 -2.4844 0.3880
H -0.5786 1.6091 0.5281
H 0.9088 2.3718 -0.1857
H 0.9091 1.7379 1.5211
H 7.8060 -2.0023 1.3762
H 8.8875 -1.9113 3.5751
H 7.3125 2.0107 4.2501
H 6.1811 1.9507 2.0615
H 7.4798 -0.6636 -2.5228
H 7.9613 -2.7268 -3.7658
H 5.9733 -5.0399 -0.7626
H 5.4447 -2.9780 0.5111
H 4.2893 2.1039 -1.1607
H 4.9287 4.2763 -2.3377
H 9.0801 3.3210 -1.9379
H 8.5100 1.2176 -0.7958
