72
 
P 0.9441 -0.0700 -0.0444
C 0.2044 1.4639 -0.8241
C -1.3253 1.5166 -0.9026
C 0.7068 2.6475 0.0468
C 0.7577 1.6720 -2.2494
C 0.5875 -1.3385 -1.3164
C 1.6401 -2.0510 -1.9103
C 1.3787 -3.0867 -2.8226
C 0.0648 -3.4196 -3.1608
C -0.9945 -2.7413 -2.5627
C -0.7391 -1.7240 -1.6329
C 0.3945 -0.2173 1.6952
C -0.9827 -0.3162 1.9926
C -1.4378 -0.3858 3.3142
C -0.5251 -0.3848 4.3655
C 0.8469 -0.3318 4.0924
C 1.3115 -0.2477 2.7619
Cu 3.4041 -0.0700 -0.0444
P 5.8641 -0.0700 -0.0444
N 6.8141 1.0591 0.9626
C 6.3448 1.0731 2.3475
C 8.2486 1.3487 0.8529
C 8.7561 1.2029 -0.5303
N 8.9884 -0.1910 -1.0310
C 8.5063 -1.5478 -0.5918
C 7.8629 -1.7306 0.7951
N 6.3861 -1.4695 0.8955
C 5.6109 -2.6084 0.3868
N 6.2992 0.5616 -1.7280
C 5.2867 1.4398 -2.3272
C 7.2605 -0.0297 -2.7570
C 8.7932 -0.0963 -2.4554
H -1.8025 1.4479 0.0875
H -1.7112 0.7540 -1.5930
H -1.6457 2.4886 -1.3332
H 0.3474 2.5671 1.0959
H 0.3754 3.6304 -0.3521
H 1.8213 2.6675 0.0841
H 0.4529 0.8417 -2.9168
H 1.8657 1.7522 -2.2577
H 0.3518 2.6150 -2.6822
H 2.6632 -1.8275 -1.6460
H 2.1949 -3.6429 -3.2634
H -0.1344 -4.2165 -3.8695
H -2.0145 -3.0204 -2.8077
H -1.5943 -1.2755 -1.1560
H -1.7229 -0.3433 1.2114
H -2.5010 -0.4414 3.5246
H -0.8856 -0.4351 5.3888
H 1.5419 -0.3522 4.9223
H 2.3788 -0.2075 2.5616
H 5.2352 1.0102 2.3831
H 6.6406 2.0237 2.8389
H 6.7803 0.2170 2.9028
H 8.8943 0.8336 1.5816
H 8.3456 2.4376 1.0756
H 9.7000 1.7734 -0.6619
H 8.0835 1.8329 -1.1585
H 9.4088 -2.1980 -0.6498
H 7.8391 -2.0517 -1.3227
H 8.4533 -1.2077 1.5595
H 8.0364 -2.8001 1.0541
H 5.9105 -3.5508 0.8908
H 5.7315 -2.7356 -0.7131
H 4.5348 -2.4434 0.6069
H 4.2454 1.1006 -2.0612
H 5.3582 1.4561 -3.4437
H 5.5156 2.4837 -2.0208
H 6.9190 -1.0368 -3.0389
H 7.2978 0.6128 -3.6681
H 9.3778 0.7818 -2.8413
H 9.2764 -0.9433 -2.9990
