65
 
P 1.0343 -0.0668 -0.0661
C 0.0523 -1.0815 1.1880
C -1.4812 -0.9752 1.2508
C -2.1658 -1.7803 0.1386
C -1.7633 -3.2574 0.1895
C -0.2381 -3.3990 0.1002
C 0.4434 -2.5885 1.2142
C 0.6133 1.7202 0.4741
C 0.7134 2.2595 1.9365
C 2.1470 2.4554 2.4278
C 2.9562 3.3179 1.4448
C 2.8517 2.7693 0.0239
C 1.3825 2.6865 -0.4304
C 0.7394 -0.6786 -1.9049
C -0.3502 -0.1008 -2.6862
C -1.4471 0.7598 -2.1441
C -0.5243 -0.3447 -4.0730
C 0.2948 -1.1989 -4.7758
C 0.1643 -1.4193 -6.2733
C 1.2562 -1.8754 -4.0709
C 1.5284 -1.6605 -2.6810
C 2.6438 -2.6191 -2.2656
Cu 3.4943 -0.0668 -0.0661
O 5.5443 -0.0668 -0.0661
C 6.2987 -1.1292 -0.1973
C 7.6198 -0.7291 -0.1523
C 7.6046 0.6434 0.0144
C 6.2764 1.0111 0.0626
H 0.4295 -0.6710 2.1504
H -1.8008 0.0840 1.2705
H -1.8108 -1.4271 2.2185
H -1.8720 -1.3952 -0.8414
H -3.2679 -1.6920 0.2436
H -2.2393 -3.7979 -0.6581
H -2.1301 -3.7116 1.1363
H 0.1061 -3.0467 -0.8848
H 0.0317 -4.4746 0.1901
H 1.5467 -2.7171 1.1811
H 0.0989 -3.0270 2.1806
H -0.4586 1.8565 0.2872
H 0.1141 1.6642 2.6564
H 0.2470 3.2793 1.9367
H 2.6112 1.4583 2.5433
H 2.1362 2.9698 3.4188
H 4.0203 3.3270 1.7657
H 2.5834 4.3654 1.4417
H 3.3184 1.8039 0.0419
H 3.4307 3.3937 -0.6812
H 1.2913 2.3519 -1.4850
H 0.9360 3.7062 -0.3702
H -1.4541 0.8018 -1.0656
H -2.4179 0.2653 -2.3856
H -1.4433 1.7655 -2.6053
H -1.3292 0.1366 -4.6209
H -0.6328 -0.7959 -6.7318
H -0.0408 -2.4849 -6.5125
H 1.1218 -1.1426 -6.7733
H 1.8354 -2.5887 -4.6571
H 3.6420 -2.5918 -1.7926
H 2.2166 -3.6509 -2.2905
H 3.3139 -2.5582 -3.1439
H 5.9323 -2.1394 -0.3201
H 8.4936 -1.3615 -0.2322
H 8.4613 1.2994 0.0911
H 5.8866 2.0127 0.1843
