33
 
P 1.2750 0.0000 0.0000
N 0.3851 1.4946 -0.3232
C -1.0532 1.3839 -0.3196
C -1.4559 -0.0435 0.0018
C -2.9829 -0.1032 0.0161
C -0.8639 -0.9749 -1.1402
N 0.6102 -0.8938 -1.3390
N 0.6055 -0.2507 1.5861
C -0.8676 -0.4084 1.4324
Cu 3.7350 0.0003 -0.0005
N 5.8350 0.0006 -0.0009
C 6.5117 0.5799 -1.0252
Cl 5.6108 1.3848 -2.2923
C 7.9094 0.4976 -1.0740
C 8.5885 -0.1862 -0.0609
C 7.8708 -0.7651 0.9874
C 6.4788 -0.6570 1.0001
H 0.7308 1.8910 -1.2289
H -1.4487 1.7044 -1.3112
H -1.4408 2.0981 0.4394
H -3.3814 0.2145 -0.9732
H -3.3776 0.5997 0.7837
H -3.3302 -1.1282 0.2423
H -1.3503 -0.7209 -2.1095
H -1.1306 -2.0270 -0.9127
H 0.8662 -0.4137 -2.2319
H 0.8623 0.5541 2.2012
H -1.3567 0.2270 2.2048
H -1.1348 -1.4599 1.6647
H 8.4627 0.9411 -1.8915
H 9.6672 -0.2750 -0.0905
H 8.3848 -1.3046 1.7729
H 5.9041 -1.1184 1.7924
