60
 
P 1.0083 0.0374 -0.0924
C 0.0807 0.6134 -1.5416
C 0.5201 -1.7064 -0.0027
C 0.5192 1.2442 1.1694
Cu 3.4683 0.0374 -0.0924
P 5.9283 0.0374 -0.0924
C 6.6329 -0.5018 -1.7673
C 6.1610 0.4705 -2.8765
C 8.1590 -0.6621 -1.8801
C 5.9900 -1.8592 -2.1122
C 6.4464 1.8011 0.3628
C 5.9047 2.0885 1.7723
C 7.9892 1.9590 0.4214
C 5.8951 2.8958 -0.5658
C 6.3670 -1.2542 1.0840
C 5.3932 -1.9457 1.7961
C 5.7682 -2.8249 2.8267
C 7.1368 -3.0414 3.1718
N 7.5404 -3.8882 4.2883
C 6.5896 -4.5867 5.1467
C 8.9336 -4.0744 4.6978
C 8.0937 -2.3522 2.3910
C 7.7120 -1.4773 1.3848
H -1.0139 0.5706 -1.4339
H 0.4169 0.0034 -2.4118
H 0.4171 1.6543 -1.7555
H -0.5913 -1.7532 0.0299
H 0.9040 -2.1319 0.9483
H 0.8968 -2.2856 -0.8656
H -0.5921 1.2559 1.2251
H 0.8964 2.2576 0.9395
H 0.9022 0.9009 2.1534
H 6.7092 1.4193 -2.8588
H 5.0641 0.6551 -2.8139
H 6.3769 0.0682 -3.8897
H 8.7020 0.2836 -1.7624
H 8.4250 -1.0236 -2.8967
H 8.5454 -1.4187 -1.1816
H 4.8799 -1.7853 -2.0973
H 6.3095 -2.6486 -1.4040
H 6.2859 -2.1800 -3.1377
H 6.2944 1.3565 2.5112
H 4.7959 2.0583 1.7754
H 6.2234 3.1022 2.1091
H 8.4732 1.2007 1.0637
H 8.2806 2.9468 0.8368
H 8.4422 1.9416 -0.5817
H 4.7953 2.8044 -0.6727
H 6.3740 2.9117 -1.5503
H 6.1432 3.8992 -0.1526
H 4.3428 -1.7693 1.5834
H 4.9505 -3.2861 3.3442
H 5.5326 -4.4567 4.8882
H 6.7034 -4.2270 6.1923
H 6.7942 -5.6773 5.1199
H 9.6896 -3.5483 4.1032
H 9.1975 -5.1519 4.6569
H 9.0662 -3.7131 5.7405
H 9.1558 -2.4210 2.5335
H 8.4985 -0.9488 0.8783
