42
 
P 1.2750 0.0000 0.0000
N 0.3715 0.5647 1.4171
C -1.0690 0.5406 1.3032
C -1.4647 -0.0129 -0.0518
C -2.9948 -0.0402 -0.1185
C -0.8690 0.9593 -1.1551
N 0.6043 1.1788 -1.0955
N 0.5993 -1.6051 0.0274
C -0.8730 -1.4813 -0.1708
Cu 3.7350 0.0003 -0.0005
N 5.8350 0.0006 -0.0009
C 6.4464 1.2041 0.0195
C 5.5814 2.4204 0.0421
C 7.8461 1.2762 0.0179
C 8.5946 0.0869 0.0069
C 10.0956 0.1188 0.0090
C 7.9255 -1.1463 -0.0023
C 6.5229 -1.1702 -0.0052
C 5.7604 -2.4579 -0.0158
H 0.7118 1.5223 1.6689
H -1.4695 1.5704 1.4512
H -1.4627 -0.0894 2.1309
H -3.3999 0.9861 0.0279
H -3.3972 -0.6808 0.6982
H -3.3383 -0.4333 -1.0935
H -1.3643 1.9539 -1.0704
H -1.1270 0.5583 -2.1563
H 0.8429 2.1352 -0.7464
H 0.8380 -2.0581 0.9386
H -1.3719 -2.1386 0.5771
H -1.1308 -1.8834 -1.1722
H 4.4990 2.1179 0.0665
H 5.7808 3.0304 -0.8637
H 5.8147 3.0199 0.9466
H 8.3418 2.2392 0.0288
H 10.4818 1.1601 0.0150
H 10.4836 -0.3935 -0.8968
H 10.4801 -0.4025 0.9112
H 8.4906 -2.0714 -0.0074
H 6.4455 -3.3336 -0.0248
H 5.1115 -2.4974 -0.9153
H 5.1175 -2.5169 0.8865
