65
 
P 0.9004 0.0048 -0.0080
C 0.2248 1.0453 -1.3512
C -1.1259 1.1866 -1.7049
C -1.4872 2.0382 -2.7730
C -0.5132 2.7485 -3.4877
C 0.8263 2.6255 -3.1340
C 1.1872 1.7851 -2.0761
C 0.6725 -1.6548 -0.7354
C 1.2292 -1.9990 -1.9765
C 1.1123 -3.3105 -2.4680
C 0.4468 -4.2907 -1.7253
C -0.1214 -3.9608 -0.4964
C -0.0194 -2.6516 -0.0079
C 0.3412 0.4198 1.6947
C 0.6637 -0.3571 2.8443
C 1.4629 -1.6207 2.8134
C 0.1968 0.0340 4.1129
C -0.6017 1.1598 4.2678
C -0.9316 1.9290 3.1571
C -0.4612 1.5709 1.8837
Cu 3.3604 0.0048 -0.0080
C 5.5104 0.0048 -0.0080
N 6.2973 -0.6879 0.8244
C 5.8049 -1.6332 1.8180
C 6.9578 -2.3720 2.5135
C 4.8927 -0.8915 2.7781
C 7.5696 -0.3861 0.4732
C 7.5277 0.4963 -0.5846
N 6.2342 0.7263 -0.8802
C 5.6997 1.6277 -1.8958
C 4.7811 0.8342 -2.8155
C 4.9302 2.7834 -1.2370
H -1.8932 0.6552 -1.1660
H -2.5242 2.1561 -3.0559
H -0.7916 3.3985 -4.3122
H 1.5838 3.1823 -3.6793
H 2.2326 1.7140 -1.8198
H 1.7685 -1.2625 -2.5539
H 1.5518 -3.5769 -3.4196
H 0.3746 -5.3073 -2.0974
H -0.6291 -4.7260 0.0823
H -0.4614 -2.4372 0.9561
H 1.7165 -1.9673 1.8003
H 0.8988 -2.4215 3.3385
H 2.3887 -1.4600 3.3746
H 0.4370 -0.5556 4.9908
H -0.9683 1.4267 5.2531
H -1.5569 2.8040 3.2918
H -0.7353 2.2034 1.0500
H 5.1915 -2.4046 1.2993
H 7.6330 -1.6573 3.0276
H 7.5432 -2.9323 1.7485
H 6.5736 -3.1095 3.2471
H 5.4669 -0.0923 3.2973
H 4.5351 -1.6063 3.5474
H 4.0276 -0.4619 2.1665
H 8.4661 -0.7813 0.9317
H 8.3764 0.9383 -1.0901
H 6.5391 2.0711 -2.4791
H 3.9389 0.3968 -2.2035
H 5.3754 0.0256 -3.2960
H 4.3848 1.4978 -3.6137
H 4.0776 2.4035 -0.6364
H 4.5404 3.4744 -2.0157
H 5.5957 3.3651 -0.5637
