51
 
P 0.9276 -0.0565 -0.0396
C -0.1043 -1.5351 0.2634
C 0.3810 1.2090 1.1409
C 0.4768 0.1256 -1.7905
Cu 3.3876 -0.0565 -0.0396
C 5.5376 -0.0565 -0.0396
N 6.3020 -1.1695 -0.0487
C 5.7755 -2.5506 -0.0510
C 4.2291 -2.5494 -0.0497
C 6.2515 -3.3381 -1.2770
C 7.5777 -0.7000 -0.0417
C 7.5577 0.6833 -0.0475
C 8.7469 1.4318 -0.0364
C 9.9679 0.7406 -0.0332
C 9.9917 -0.6661 -0.0320
C 8.7928 -1.4041 -0.0296
N 6.2747 1.1236 -0.0554
C 5.8468 2.5885 -0.0625
C 5.1344 2.9736 1.2247
C 5.7603 2.5051 2.3686
C 5.0820 2.4629 3.5704
C 3.8198 3.0362 3.6942
C 3.2576 3.7238 2.6130
C 3.8939 3.6705 1.3520
H -1.1878 -1.3702 0.1461
H 0.1312 -1.9700 1.2589
H 0.2256 -2.3089 -0.4734
H -0.7285 1.2768 1.0882
H 0.7858 2.1894 0.8068
H 0.7017 0.9958 2.1757
H -0.6355 0.1631 -1.8525
H 0.8439 -0.7240 -2.3971
H 0.8660 1.0873 -2.1791
H 6.1298 -3.0707 0.8654
H 3.8289 -2.0285 -0.9511
H 3.8580 -2.0479 0.8686
H 3.8310 -3.5835 -0.0498
H 5.9065 -2.8519 -2.2131
H 5.8416 -4.3713 -1.2380
H 7.3512 -3.4297 -1.3032
H 8.7622 2.5115 -0.0295
H 10.8997 1.2942 -0.0306
H 10.9458 -1.1794 -0.0307
H 8.8431 -2.4811 -0.0177
H 5.2283 2.8306 -0.9514
H 6.7403 3.2461 -0.1182
H 6.7528 2.0866 2.2948
H 5.5440 1.9426 4.3906
H 3.2962 2.9494 4.6367
H 2.3069 4.2340 2.7581
H 3.3937 4.1428 0.5104
