40
 
C 0.9010 -0.6430 -0.0020
N -0.3543 -1.1124 0.0232
C -0.7427 -2.5128 0.0546
C -1.1606 -0.0311 0.0168
C -0.3621 1.0988 -0.0131
N 0.9248 0.6989 -0.0224
C 2.1153 1.5329 -0.0479
Cu 2.6584 -1.8814 -0.0135
C 4.4159 -3.1199 -0.0250
N 4.3762 -4.3929 -0.0436
C 3.1549 -5.1553 0.0042
C 5.7063 -4.9558 -0.0517
C 6.6055 -3.7390 -0.3219
N 5.7428 -2.6205 -0.0220
C 6.1744 -1.2617 0.1708
C 7.5472 -0.9269 0.1082
C 7.9803 0.3859 0.3269
C 7.0571 1.3909 0.6065
C 5.7004 1.0822 0.6822
C 5.2603 -0.2329 0.4762
H 0.1693 -3.1559 0.0562
H -1.3593 -2.7478 -0.8382
H -1.3358 -2.7133 0.9721
H -2.2423 -0.0574 0.0335
H -0.6936 2.1293 -0.0250
H 1.8419 2.6087 -0.0650
H 2.7199 1.2956 -0.9494
H 2.7119 1.3350 0.8637
H 2.2698 -4.4648 0.0256
H 3.1578 -5.7939 0.9146
H 3.1013 -5.8149 -0.8883
H 5.8616 -5.7370 -0.8253
H 5.8993 -5.3704 0.9633
H 6.8396 -3.6687 -1.4090
H 7.5396 -3.7931 0.2745
H 8.2989 -1.6741 -0.0985
H 9.0355 0.6247 0.2831
H 7.3939 2.4069 0.7746
H 4.9937 1.8680 0.9126
H 4.2202 -0.4297 0.5814
