39
 
P 0.9774 -0.0580 0.0783
C 0.2686 -0.2164 1.8180
C -1.2399 -0.1679 2.1185
C 0.8389 -1.4814 2.4797
C 0.4882 1.6197 -0.5757
C -1.0385 1.8565 -0.7137
C 1.0936 2.7516 0.2333
C 0.5066 -1.6055 -0.8775
C -1.0173 -1.7614 -1.0773
C 1.1038 -1.6071 -2.2995
Cu 3.4374 -0.0580 0.0783
C 5.5874 -0.0580 0.0783
N 6.3348 -0.6375 -0.8800
C 7.5998 -0.4066 -0.4867
C 7.5718 0.3024 0.6932
O 6.3168 0.5017 1.0161
H 0.7121 0.6386 2.3716
H -1.8116 -1.0074 1.7084
H -1.7097 0.7826 1.8650
H -1.3840 -0.2401 3.2184
H 0.3873 -2.3975 2.0449
H 0.6162 -1.4751 3.5709
H 1.9437 -1.5291 2.3695
H 0.8934 1.6731 -1.6082
H -1.5560 1.9584 0.2450
H -1.5506 1.0906 -1.3162
H -1.2346 2.8224 -1.2233
H 0.7166 2.7295 1.2760
H 0.8021 3.7243 -0.2232
H 2.1982 2.6648 0.2148
H 0.8844 -2.4909 -0.3312
H -1.4419 -0.9678 -1.7207
H -1.5716 -1.7966 -0.1417
H -1.2476 -2.7180 -1.5914
H 0.7326 -0.7441 -2.8990
H 0.7859 -2.5301 -2.8410
H 2.2092 -1.5924 -2.2848
H 8.4808 -0.7331 -1.0226
H 8.4234 0.6427 1.2671
