59
 
C 0.9010 -0.6430 -0.0020
N -0.3751 -1.1926 -0.0608
C -0.8870 -2.5976 -0.0054
C -0.1776 -3.6206 0.7089
C 1.0981 -3.4029 1.3355
C -0.6044 -4.9248 0.8063
C -1.7578 -5.3308 0.1964
C -2.1381 -6.7715 0.3173
C -2.5119 -4.4005 -0.5251
C -2.1116 -3.0397 -0.6320
C -2.9966 -2.1569 -1.4750
C -1.1755 -0.1179 -0.0230
C -0.4453 1.0254 0.0426
N 0.8847 0.7738 0.0385
C 1.9965 1.8355 0.0227
C 1.8890 3.2800 -0.0202
C 0.6613 4.1176 -0.0832
C 3.0676 4.1028 -0.0146
C 4.3548 3.5667 0.0221
C 5.6215 4.3453 0.0313
C 4.4861 2.2345 0.0534
C 3.3587 1.4598 0.0531
C 3.6892 0.1916 0.1160
Cu 2.6584 -1.8814 -0.0135
N 4.3750 -3.0911 -0.0247
C 4.3516 -4.3967 -0.4600
Cl 2.9052 -5.1025 -1.1459
C 5.5071 -5.2095 -0.3851
C 6.6790 -4.7111 0.1727
C 6.6999 -3.4096 0.6281
C 5.5599 -2.6163 0.5037
H 1.4259 -3.1382 0.3948
H 1.8289 -4.2298 1.4091
H 1.0190 -2.7565 2.2335
H -0.0011 -5.6392 1.3599
H -1.3994 -7.3349 0.9358
H -2.1459 -7.2297 -0.6905
H -3.1253 -6.8560 0.8087
H -3.4147 -4.7498 -1.0104
H -3.8370 -2.7223 -1.9303
H -2.4015 -1.7128 -2.3003
H -3.5020 -1.3894 -0.8730
H -2.2421 -0.0949 0.0196
H -0.9805 1.9233 0.1003
H -0.3022 3.6730 -0.1569
H 0.7282 4.7316 -1.0009
H 0.6415 4.7476 0.8276
H 2.9854 5.1759 -0.0442
H 5.4141 5.4252 0.0054
H 6.2330 4.0447 -0.8512
H 6.1940 4.0818 0.9511
H 5.4885 1.7835 0.0846
H 4.3669 -0.2515 0.7853
H 3.5388 -0.3326 -0.8355
H 3.0288 -0.0435 1.0019
H 5.5061 -6.2323 -0.7387
H 7.5671 -5.3280 0.2659
H 7.5946 -3.0116 1.0965
H 5.6877 -1.6545 0.9277
