36
 
C 0.9010 -0.6430 -0.0020
N -0.3407 -1.1222 -0.0082
C -0.6728 -2.5363 -0.0181
C 0.6218 -3.4091 -0.0106
C -1.1615 -0.0457 -0.0022
C -0.3732 1.0929 0.0152
N 0.9112 0.6958 0.0184
C 2.0988 1.5188 0.0461
C 3.3115 0.6074 0.0276
Cu 2.6584 -1.8814 -0.0135
N 4.3750 -3.0911 -0.0247
C 5.6726 -2.6133 -0.1212
C 5.9989 -1.1858 -0.2355
C 6.7644 -3.4779 -0.1996
C 6.5565 -4.8430 -0.1956
C 5.2575 -5.3350 -0.1025
C 4.1757 -4.4422 -0.0146
H -1.2878 -2.7490 -0.9215
H -1.2992 -2.7560 0.8760
H 1.2617 -3.2220 -0.8814
H 0.2872 -4.4677 -0.0136
H 1.2528 -3.2231 0.8680
H -2.2432 -0.0719 -0.0068
H -0.7023 2.1253 0.0272
H 2.1020 2.1478 0.9629
H 2.1124 2.1806 -0.8476
H 3.3452 -0.1013 0.8684
H 4.2178 1.2506 0.0260
H 3.2710 -0.0403 -0.8604
H 5.0814 -0.7245 -0.2674
H 6.4950 -0.9570 -1.2021
H 6.5855 -0.8046 0.6236
H 7.7714 -3.0822 -0.2969
H 7.4063 -5.5077 -0.2819
H 5.0960 -6.4033 -0.1138
H 3.1714 -4.8349 0.0392
