48
 
C 0.9010 -0.6430 -0.0020
N -0.3507 -1.1092 -0.0383
C -0.7159 -2.5287 -0.0310
C 0.5986 -3.4024 -0.0370
C -1.5957 -2.7955 1.2186
C -1.5478 -2.8585 -1.2836
C -1.1475 -0.0152 -0.0276
C -0.3376 1.1057 0.0090
N 0.9490 0.6920 0.0313
C 2.1799 1.4894 0.0397
C 2.1672 2.4252 1.2651
C 3.4280 0.5281 0.0955
C 2.2094 2.3625 -1.2375
Cu 2.6584 -1.8814 -0.0135
N 4.3750 -3.0911 -0.0247
C 5.4250 -2.7418 0.7592
N 6.5647 -3.4738 0.7404
C 6.7320 -4.4849 -0.1531
O 7.9062 -5.1574 -0.2167
C 8.9609 -4.9203 0.6434
C 5.6843 -4.8115 -1.0228
C 4.4650 -4.1336 -0.8888
H 1.2956 -3.1646 0.7698
H 1.1705 -3.2522 -0.9645
H 0.3088 -4.4709 0.0547
H -1.0570 -2.5447 2.1557
H -1.9299 -3.8533 1.2647
H -2.5193 -2.1673 1.1918
H -0.9533 -2.6653 -2.1998
H -2.4705 -2.2379 -1.3306
H -1.8567 -3.9264 -1.2764
H -2.2299 -0.0221 -0.0377
H -0.6653 2.1377 0.0185
H 2.1267 1.8389 2.2054
H 1.2759 3.0936 1.2416
H 3.0678 3.0752 1.2788
H 3.4260 -0.0934 1.0065
H 4.3537 1.1383 0.0708
H 3.4684 -0.1668 -0.7508
H 1.3263 3.0425 -1.2747
H 2.1830 1.7317 -2.1505
H 3.1177 3.0009 -1.2687
H 5.2962 -1.9656 1.5026
H 9.8044 -5.5948 0.3924
H 8.6488 -5.1164 1.6925
H 9.3059 -3.8674 0.5527
H 5.8196 -5.5558 -1.7985
H 3.6599 -4.3190 -1.5893
