49
 
P 1.0729 -0.0477 -0.0491
C 0.3639 -1.7697 0.1950
C -1.1476 -1.9653 0.3110
C 0.9261 -2.7535 -0.8518
C 0.5432 0.9078 1.4479
C 1.0443 0.3798 2.7928
C 0.9570 2.3755 1.2894
C 0.5759 0.6335 -1.7250
C 1.0544 -0.1575 -2.9408
C -0.9450 0.8777 -1.8562
Cu 3.5329 -0.0477 -0.0491
C 5.6829 -0.0477 -0.0491
N 6.3823 0.3735 0.9321
C 5.8265 0.9766 2.1176
C 7.7977 0.2351 0.6633
C 7.8356 -0.6490 -0.5940
N 6.4909 -0.5368 -1.0910
C 6.0538 -0.9086 -2.4141
H 0.8029 -2.1073 1.1567
H -1.6777 -1.7330 -0.6239
H -1.5630 -1.3927 1.1606
H -1.3475 -3.0455 0.5032
H 0.4277 -2.6594 -1.8251
H 0.7304 -3.8037 -0.5500
H 2.0255 -2.6314 -0.9746
H -0.5684 0.8830 1.4676
H 2.1499 0.4382 2.8608
H 0.6975 -0.6549 2.9763
H 0.6141 1.0133 3.6046
H 2.0628 2.4700 1.2447
H 0.5780 2.9785 2.1441
H 0.5173 2.8069 0.3648
H 1.0598 1.6301 -1.7842
H 0.4763 -1.0795 -3.0897
H 2.1404 -0.3642 -2.8747
H 0.8524 0.4323 -3.8614
H -1.5257 -0.0582 -1.8552
H -1.1756 1.3637 -2.8300
H -1.3291 1.5416 -1.0540
H 4.7068 0.9892 2.0612
H 6.2044 2.0183 2.2086
H 6.1594 0.4039 3.0099
H 8.3714 -0.2316 1.4919
H 8.1942 1.2508 0.4402
H 7.9756 -1.7166 -0.3057
H 8.6251 -0.3336 -1.3074
H 6.9170 -1.2804 -3.0097
H 5.6525 -0.0077 -2.9269
H 5.2714 -1.6906 -2.3650
