77
 
P -1.3500 0.0010 0.7980
N -1.4579 -0.4596 -0.9216
C -2.5177 0.3093 -1.5760
C -0.3358 -0.7021 -1.8337
C 0.8192 -1.3329 -1.1579
N 1.7112 -0.4460 -0.3403
C 1.5629 0.9253 0.2627
C 0.4229 1.8444 -0.1889
N -0.8805 1.6799 0.5298
C -0.8941 2.3451 1.8356
N -0.3609 -1.4572 1.3931
C -1.1305 -2.5709 1.9609
C 1.1194 -1.5283 1.7684
C 2.2264 -1.3137 0.6852
Cu -3.3226 0.0026 2.2679
C -5.0466 0.0040 3.5525
N -5.6689 -1.1051 3.9626
C -4.9733 -2.3938 3.7980
C -3.7116 -2.2525 4.6871
C -4.1565 -2.1563 6.1630
C -4.7521 -3.5029 6.5685
C -5.9789 -3.8463 5.7063
C -5.6830 -3.7174 4.2022
C -6.8071 -0.6749 4.5610
C -6.8009 0.7297 4.5444
N -5.6667 1.1315 3.9258
C -4.9772 2.4132 3.6976
C -5.7573 3.7577 3.7641
C -6.1552 4.2136 5.1751
C -4.9527 4.1643 6.1271
C -4.3448 2.7584 6.1283
C -3.8100 2.4429 4.7140
H -3.4133 0.3809 -0.9200
H -2.8338 -0.1941 -2.5134
H -2.1547 1.3327 -1.8084
H -0.0353 0.1489 -2.4646
H -0.7068 -1.4818 -2.5410
H 1.4551 -1.8693 -1.8934
H 0.3947 -2.2137 -0.6193
H 2.5321 1.4331 0.0573
H 1.5510 0.9398 1.3729
H 0.3272 1.8264 -1.2830
H 0.7837 2.8800 0.0043
H -0.6052 3.4122 1.7351
H -0.2187 1.8437 2.5622
H -1.9287 2.3217 2.2397
H -1.9856 -2.2101 2.5504
H -0.5251 -3.1838 2.6722
H -1.4333 -3.2559 1.1462
H 1.3130 -0.8454 2.6084
H 1.3980 -2.5635 2.0746
H 2.5949 -2.2600 0.2051
H 3.1662 -0.9126 1.1353
H -4.7015 -2.4958 2.7218
H -3.1458 -1.3325 4.4223
H -3.0141 -3.1025 4.5475
H -4.9076 -1.3478 6.3251
H -3.2897 -1.9101 6.8052
H -5.0457 -3.4874 7.6393
H -3.9591 -4.2695 6.4338
H -6.8139 -3.1759 5.9710
H -6.2972 -4.8893 5.9341
H -6.5977 -3.9076 3.6024
H -4.9632 -4.5324 3.9494
H -7.5501 -1.3005 5.0329
H -7.5350 1.3798 4.9997
H -4.5807 2.3636 2.6583
H -6.6291 3.7704 3.0775
H -5.0453 4.5322 3.3922
H -6.9669 3.5725 5.5662
H -6.5341 5.2612 5.1293
H -5.2788 4.4512 7.1497
H -4.1703 4.8883 5.8037
H -5.1157 2.0207 6.4522
H -3.5115 2.7173 6.8587
H -3.2809 1.4610 4.7230
H -3.0630 3.2089 4.4282
