60
 
P 1.2750 0.0000 0.0000
N 0.4524 1.5328 -0.2357
C 1.0874 2.5082 0.7156
C 2.6371 2.6470 0.4910
C 0.5024 3.9184 0.5909
C -1.0035 1.4096 -0.2149
C -1.4279 -0.0352 0.0335
C -2.9639 -0.0833 0.0334
C -0.8686 -0.9567 -1.1336
N 0.6223 -0.9516 -1.3467
C 1.1614 -2.3683 -1.2902
C 0.6079 -3.3303 -2.3542
C 2.7039 -2.4683 -1.3483
N 0.6622 -0.3649 1.6178
C 1.2485 -1.6572 2.1323
C 2.8013 -1.6895 2.2185
C 0.7039 -2.0854 3.5032
C -0.8384 -0.4698 1.4477
Cu 3.7350 0.0003 -0.0005
N 5.8350 0.0006 -0.0009
C 6.5271 1.0398 -0.5401
Cl 5.6633 2.4261 -1.1651
C 7.9243 0.9861 -0.6164
C 8.5918 -0.1447 -0.1403
C 7.8620 -1.2000 0.4085
C 6.4698 -1.1071 0.4683
H 0.9185 2.1771 1.7660
H 2.8720 2.9314 -0.5511
H 3.2356 1.7563 0.6939
H 3.0601 3.4041 1.1863
H 0.6817 4.3185 -0.4270
H 0.9916 4.5812 1.3389
H -0.5770 3.9520 0.8188
H -1.3822 1.7599 -1.2018
H -1.4575 2.0435 0.5689
H -3.3550 0.2521 -0.9540
H -3.3720 0.5997 0.8097
H -3.3267 -1.1109 0.2299
H -1.3342 -0.6612 -2.0984
H -1.2530 -1.9709 -0.8961
H 0.8189 -2.8553 -0.3846
H 0.9262 -3.0404 -3.3716
H -0.4933 -3.4311 -2.3087
H 1.0030 -4.3537 -2.1368
H 3.1011 -2.1251 -2.3202
H 3.0240 -3.5179 -1.1560
H 3.2160 -1.8923 -0.5917
H 0.9346 -2.4785 1.5044
H 3.1652 -1.0275 3.0289
H 3.3638 -1.4458 1.3002
H 3.1196 -2.7320 2.4430
H 1.0181 -1.3817 4.2963
H 1.1041 -3.0997 3.7398
H -0.3983 -2.1886 3.5108
H -1.2989 0.1690 2.2331
H -1.2051 -1.5032 1.6109
H 8.4866 1.8023 -1.0518
H 9.6708 -0.2076 -0.2044
H 8.3680 -2.0858 0.7709
H 5.8883 -1.9260 0.8708
