57
 
P 1.4492 -0.0029 -0.0389
N 0.6173 1.5096 -0.2998
C 1.1971 2.4430 0.7072
C 2.7513 2.6025 0.5664
C 0.5925 3.8295 0.5629
C -0.8397 1.3999 -0.3044
C -1.2881 -0.0028 -0.0172
C -2.8261 -0.0195 -0.0037
C -0.7465 -0.9485 -1.1392
N 0.7497 -0.9760 -1.3410
C 1.2634 -2.3792 -1.1824
C 0.6840 -3.4016 -2.1076
C 2.7970 -2.4980 -1.2223
N 0.7682 -0.3700 1.5599
C 1.2875 -1.6942 2.0243
C 2.8226 -1.7580 2.1035
C 0.6976 -2.2181 3.3035
C -0.7319 -0.4122 1.3921
Cu 3.8073 -0.0240 0.0176
O 5.7717 -0.0197 -0.0221
C 6.5580 1.0319 0.0221
N 7.8549 0.6622 -0.0517
C 7.8155 -0.6832 -0.1596
C 6.5022 -1.0921 -0.1535
H 0.9855 2.0706 1.7369
H 3.0302 2.9508 -0.4434
H 3.3443 1.7070 0.7364
H 3.1258 3.3008 1.3425
H 0.8153 4.2031 -0.4554
H 1.0052 4.4855 1.3505
H -0.4971 3.8465 0.7099
H -1.2026 1.7426 -1.2982
H -1.3090 2.0099 0.4808
H -3.2162 0.3071 -0.9921
H -3.2114 0.6805 0.7715
H -3.2040 -1.0363 0.2196
H -1.2034 -0.6651 -2.1089
H -1.1707 -1.9280 -0.8407
H 0.8671 -2.8311 -0.3264
H 0.9918 -3.1185 -3.1166
H -0.4161 -3.4715 -2.0036
H 1.0779 -4.3999 -1.7817
H 3.1734 -2.2293 -2.2150
H 3.1454 -3.4700 -0.8046
H 3.3204 -1.8068 -0.6352
H 0.9009 -2.4796 1.4528
H 3.1741 -1.0970 2.9080
H 3.3657 -1.4132 1.2514
H 3.1658 -2.8118 2.1618
H 0.9928 -1.5378 4.1061
H 1.0865 -3.2596 3.4414
H -0.4039 -2.3303 3.2403
H -1.1674 0.2505 2.1713
H -1.1619 -1.4201 1.5386
H 6.2278 2.0598 0.1031
H 8.6815 -1.3265 -0.2421
H 6.1271 -2.1012 -0.2388
