55
 
C 0.9010 -0.6430 -0.0020
N -0.3490 -1.1068 0.0003
C -0.7071 -2.5254 0.0133
C 0.6074 -3.3914 -0.0032
C -1.5242 -2.8164 1.2890
C -1.5854 -2.8350 -1.2188
C -1.1453 -0.0120 -0.0004
C -0.3336 1.1086 -0.0032
N 0.9506 0.6908 -0.0012
C 2.1852 1.4766 0.0122
C 2.1920 2.3529 1.2775
C 3.4089 0.5156 0.0242
C 2.2441 2.3668 -1.2448
Cu 2.6584 -1.8814 -0.0135
C 4.4159 -3.1199 -0.0250
N 4.5578 -4.4919 -0.0119
C 3.5530 -5.5482 0.0204
C 5.9022 -4.7450 -0.0227
C 6.6114 -6.0865 -0.0090
C 6.5721 -3.5530 -0.0470
C 8.0744 -3.3780 -0.0682
N 5.6620 -2.5555 -0.0485
C 6.0014 -1.1408 -0.0806
H 1.2537 -3.1910 0.8641
H 1.2351 -3.1964 -0.8851
H 0.3162 -4.4622 0.0064
H -0.9189 -2.5989 2.1935
H -1.8509 -3.8773 1.3211
H -2.4381 -2.1801 1.3305
H -1.0370 -2.6179 -2.1584
H -2.5104 -2.2129 -1.2134
H -1.9034 -3.8993 -1.2255
H -2.2277 -0.0184 0.0032
H -0.6558 2.1422 -0.0012
H 2.1236 1.7159 2.1856
H 1.3187 3.0420 1.2795
H 3.1160 2.9647 1.3360
H 3.3906 -0.1589 0.8946
H 4.3414 1.1121 0.0633
H 3.4227 -0.1173 -0.8779
H 1.3773 3.0617 -1.2837
H 2.2225 1.7438 -2.1650
H 3.1743 2.9742 -1.2525
H 2.5354 -5.1406 0.0313
H 3.7040 -6.1736 0.9285
H 3.6761 -6.2045 -0.8694
H 5.9346 -6.9606 0.0135
H 7.2810 -6.1451 0.8793
H 7.2612 -6.1744 -0.9091
H 8.6164 -4.3464 -0.0590
H 8.4011 -2.8073 0.8255
H 8.3792 -2.8369 -0.9877
H 7.0985 -0.9808 -0.1058
H 5.6310 -0.6550 0.8399
H 5.5951 -0.6871 -1.0046
