63
 
C 0.9010 -0.6430 -0.0020
N -0.0865 -0.6188 -0.9592
C -0.2424 -1.2595 -2.2687
C -0.9727 0.3176 -0.5714
C -0.5880 0.8192 0.6329
N 0.5795 0.2496 0.9855
C 1.1747 0.4756 2.3036
Cu 2.6584 -1.8814 -0.0135
C 4.4159 -3.1199 -0.0250
N 5.6987 -2.5952 0.0533
C 6.2055 -1.1874 0.1023
C 5.3232 -0.0708 0.0449
C 3.9294 -0.1655 -0.1644
C 5.7184 1.2400 0.0980
C 7.0336 1.5633 0.1659
C 7.3787 3.0079 0.1912
C 7.9851 0.5459 0.1741
C 7.6062 -0.8193 0.1416
C 8.7486 -1.7891 0.1087
C 6.4700 -3.6919 -0.0355
C 5.7285 -4.7981 -0.1694
N 4.4103 -4.5202 -0.1391
C 3.2834 -5.5400 -0.1424
C 3.3974 -6.9768 -0.1399
C 4.6299 -7.8166 -0.1203
C 2.2260 -7.7866 -0.1364
C 0.9437 -7.2433 -0.1060
C -0.3012 -8.0445 -0.0774
C 0.8012 -5.9026 -0.1039
C 1.9215 -5.1250 -0.1346
C 1.6167 -3.8194 -0.1810
H 0.5182 -2.0241 -2.4945
H -0.1801 -0.4730 -3.0635
H -1.2629 -1.6932 -2.3451
H -1.8537 0.6136 -1.1288
H -1.1403 1.5417 1.2214
H 0.5192 1.1504 2.9059
H 2.1599 0.9529 2.2412
H 1.2126 -0.4825 2.8717
H 3.9375 -0.8952 -1.0008
H 3.4900 0.5564 -0.8734
H 3.4422 0.0857 0.7999
H 4.9656 2.0259 0.0529
H 6.4602 3.6428 0.1799
H 7.9675 3.2470 -0.7135
H 7.9292 3.2208 1.1243
H 9.0287 0.8258 0.1938
H 9.7435 -1.3066 0.1322
H 8.7147 -2.3339 -0.8622
H 8.7022 -2.4461 1.0023
H 7.5213 -3.8122 -0.0422
H 6.2737 -5.6823 -0.2769
H 5.5890 -7.3957 0.0369
H 4.6771 -8.3712 -1.0780
H 4.5648 -8.4904 0.7521
H 2.3139 -8.8600 -0.1372
H -0.0645 -9.1203 -0.0989
H -0.9171 -7.7647 -0.9608
H -0.8636 -7.7897 0.8491
H -0.1947 -5.4472 -0.0841
H 0.8657 -3.2254 -0.6801
H 2.2376 -3.7060 -1.1379
H 1.8481 -3.4310 0.8342
