63
 
P 1.2750 0.0000 0.0000
N 0.4744 1.5330 -0.2558
C 1.1216 2.5042 0.6900
C 2.6837 2.6148 0.4878
C 0.5519 3.9159 0.5453
C -0.9824 1.4188 -0.2369
C -1.4167 -0.0245 0.0133
C -2.9501 -0.0657 0.0094
C -0.8415 -0.9585 -1.1439
N 0.6530 -0.9479 -1.3555
C 1.2149 -2.3570 -1.2801
C 0.6563 -3.3536 -2.2981
C 2.7589 -2.4656 -1.3632
N 0.6499 -0.3651 1.6144
C 1.2204 -1.6696 2.1171
C 2.7726 -1.7166 2.1788
C 0.6711 -2.1288 3.4724
C -0.8474 -0.4529 1.4355
Cu 3.7350 0.0003 -0.0005
N 5.8350 0.0006 -0.0009
C 6.4779 1.1977 -0.0758
C 7.8742 1.2442 -0.2138
C 8.6017 2.5482 -0.3671
C 8.5866 0.0394 -0.2463
C 7.9073 -1.1765 -0.1453
C 6.5143 -1.1763 -0.0284
H 0.9358 2.1857 1.7415
H 2.9676 2.8543 -0.5541
H 3.2610 1.7292 0.7436
H 3.1009 3.3831 1.1742
H 0.7551 4.3054 -0.4716
H 1.0258 4.5769 1.3035
H -0.5327 3.9552 0.7462
H -1.3559 1.7693 -1.2255
H -1.4329 2.0550 0.5468
H -3.3367 0.2675 -0.9795
H -3.3527 0.6226 0.7847
H -3.3137 -1.0912 0.2140
H -1.3051 -0.6743 -2.1125
H -1.2183 -1.9705 -0.8907
H 0.8941 -2.8230 -0.3680
H 0.9696 -3.0866 -3.3223
H -0.4422 -3.4559 -2.2370
H 1.0626 -4.3652 -2.0460
H 3.1353 -2.2347 -2.3750
H 3.0775 -3.4921 -1.0664
H 3.3103 -1.8297 -0.6964
H 0.8813 -2.4830 1.5018
H 3.1541 -1.0513 2.9790
H 3.3058 -1.4794 1.2416
H 3.0954 -2.7592 2.3904
H 0.9730 -1.4447 4.2842
H 1.0735 -3.1496 3.6806
H -0.4305 -2.2456 3.4603
H -1.3050 0.1956 2.2149
H -1.2282 -1.4800 1.6007
H 5.8933 2.1090 -0.0685
H 7.9093 3.4144 -0.3059
H 9.0953 2.5706 -1.3627
H 9.3772 2.6538 0.4199
H 9.6639 0.0442 -0.3616
H 8.4550 -2.1090 -0.1828
H 5.9715 -2.1111 0.0111
