56
 
P 0.9143 0.0287 -0.0427
C 0.2061 1.1632 1.2752
C -1.3052 1.3674 1.3760
C 0.7678 0.8113 2.6684
C 0.3861 0.7747 -1.6545
C 0.8893 2.1911 -1.9343
C 0.7981 -0.1511 -2.8050
C 0.3954 -1.7495 0.2788
C 0.8424 -2.3535 1.6009
C -1.1215 -1.9866 0.1396
Cu 3.3743 0.0287 -0.0427
C 5.5243 0.0287 -0.0427
N 6.2160 0.5877 -0.9541
C 5.6433 1.2020 -2.1245
C 7.6305 0.4556 -0.6905
C 7.6759 -0.0539 0.7581
N 6.3330 -0.5331 0.9750
C 5.9170 -1.3830 2.0509
C 6.8462 -1.8526 3.0059
C 6.4512 -2.7353 4.0168
C 5.1289 -3.1649 4.0924
C 4.1983 -2.7075 3.1633
C 4.5875 -1.8198 2.1475
H 0.6463 2.1547 1.0414
H -1.8357 0.4551 1.6844
H -1.7193 1.7736 0.4349
H -1.5055 2.1121 2.1816
H 0.2705 -0.0596 3.1139
H 0.5720 1.6317 3.3902
H 1.8671 0.6418 2.6327
H -0.7255 0.8062 -1.6441
H 1.9951 2.2146 -2.0188
H 0.5426 2.9036 -1.1618
H 0.4596 2.5338 -2.9055
H 1.9035 -0.2414 -2.8612
H 0.4193 0.2437 -3.7736
H 0.3573 -1.1618 -2.6693
H 0.8862 -2.3387 -0.5235
H 0.2759 -1.9767 2.4619
H 1.9066 -2.1788 1.7261
H 0.6558 -3.4488 1.6004
H -1.6976 -1.4826 0.9314
H -1.3502 -3.0697 0.2565
H -1.5009 -1.6675 -0.8514
H 4.5206 1.1424 -2.0812
H 6.0158 0.6760 -3.0308
H 5.9696 2.2631 -2.1761
H 8.2027 1.4015 -0.7908
H 8.0269 -0.3163 -1.3878
H 7.8207 0.7953 1.4652
H 8.4747 -0.8130 0.8876
H 7.8838 -1.5559 2.9729
H 7.1732 -3.0960 4.7379
H 4.8244 -3.8573 4.8675
H 3.1818 -3.0630 3.2405
H 3.8729 -1.4926 1.4253
