68
 
C 0.9010 -0.6430 -0.0020
N -0.4166 -1.1629 -0.0370
C -0.9935 -2.5629 0.0209
C -0.1318 -3.6752 0.0871
C 1.2034 -3.4743 -0.0541
C -0.4793 -4.9892 0.1567
C -1.7906 -5.3287 0.1166
C -2.1054 -6.7820 0.1292
C -2.7542 -4.3139 0.0212
C -2.3838 -2.9366 -0.0174
C -3.5032 -1.9604 -0.1429
C -1.1747 -0.0598 -0.0092
C -0.4265 1.0461 0.0532
N 0.8952 0.7715 0.0581
C 2.0044 1.8167 0.0442
C 1.8827 3.2593 -0.0215
C 0.6474 4.0945 -0.0967
C 3.0525 4.0796 -0.0242
C 4.3373 3.5396 0.0290
C 5.5909 4.3343 0.0336
C 4.4772 2.1986 0.0876
C 3.3585 1.4151 0.0936
C 3.6195 0.1030 0.1867
Cu 2.6584 -1.8814 -0.0135
N 4.3750 -3.0911 -0.0247
C 4.5635 -4.0793 -1.0159
C 3.7143 -4.3860 -2.2462
C 5.7322 -4.8592 -1.0552
C 6.7032 -4.7462 -0.0967
C 7.9188 -5.6242 -0.1322
C 6.5318 -3.8164 0.9011
C 5.4021 -2.9652 0.9320
C 5.3687 -2.0901 2.1795
H 1.0134 -2.8674 -1.0072
H 1.8753 -4.0706 -0.6098
H 1.6303 -3.2702 0.9627
H 0.3007 -5.7506 0.2002
H -1.1756 -7.3993 0.1956
H -2.6039 -7.0404 -0.8238
H -2.7260 -7.0053 1.0131
H -3.7924 -4.6027 -0.0359
H -4.4946 -2.4427 -0.2124
H -3.3599 -1.3864 -1.0859
H -3.5306 -1.3330 0.7715
H -2.2275 0.0548 -0.0031
H -0.9757 1.9314 0.0949
H -0.3133 3.6604 -0.1665
H 0.6941 4.6992 -1.0213
H 0.6111 4.7226 0.8148
H 2.9625 5.1548 -0.0718
H 5.3716 5.4136 -0.0037
H 6.2048 4.0324 -0.8450
H 6.1565 4.0876 0.9606
H 5.4701 1.7455 0.1357
H 4.5704 -0.3813 0.2773
H 3.2708 -0.2337 -0.8131
H 3.0931 -0.0608 1.1881
H 2.7652 -3.8672 -2.4433
H 3.5224 -5.4865 -2.2639
H 4.3345 -4.1761 -3.1515
H 5.8929 -5.5755 -1.8562
H 7.9155 -6.2910 -1.0219
H 7.9401 -6.2600 0.7774
H 8.8308 -4.9940 -0.1715
H 7.2973 -3.7767 1.6689
H 6.2753 -2.2531 2.8140
H 4.5229 -2.3690 2.8403
H 5.4103 -1.0122 2.0041
