55
 
C 2.3270 0.0340 0.0000
N 1.5451 1.1414 -0.0130
C 2.0496 2.5154 -0.0286
C 2.9860 2.6882 -1.2233
C 3.5597 4.1042 -1.3406
C 4.4203 4.2125 -2.5995
C 0.2690 0.6749 -0.0080
C 0.3035 -0.6969 0.0265
C -0.8653 -1.4684 0.0549
C -2.0974 -0.8004 0.0277
C -2.1432 0.6079 -0.0108
C -0.9523 1.3672 -0.0237
N 1.5920 -1.1009 0.0311
C 2.1264 -2.4592 0.0522
C 1.7120 -3.2181 -1.2156
C 2.2095 -2.4831 -2.4636
C 1.7713 -3.1964 -3.7307
Cu 4.4769 0.0580 0.0014
N 6.5767 0.0815 0.0028
C 7.2012 -1.1235 -0.0082
C 8.6026 -1.2039 0.0856
O 9.2688 -2.3872 0.0920
C 8.6806 -3.6297 -0.0286
C 9.3302 -0.0152 0.1970
C 8.6679 1.2158 0.1939
C 7.2730 1.2463 0.0843
H 2.6280 2.7006 0.9019
H 1.2082 3.2399 -0.0733
H 2.3957 2.4753 -2.1474
H 3.8420 1.9597 -1.0737
H 4.1813 4.3261 -0.4472
H 2.7419 4.8573 -1.4034
H 5.2420 3.4658 -2.5680
H 4.8614 5.2279 -2.6790
H 3.8015 4.0261 -3.5049
H -0.8495 -2.5467 0.0991
H -3.0167 -1.3750 0.0395
H -3.1072 1.1012 -0.0264
H -1.0056 2.4460 -0.0470
H 1.7522 -2.9877 0.9561
H 3.2434 -2.4115 0.1016
H 0.6114 -3.3166 -1.2769
H 2.1276 -4.2474 -1.1785
H 3.3178 -2.4171 -2.4321
H 1.7900 -1.4534 -2.4929
H 2.1814 -4.2271 -3.7467
H 2.1476 -2.6372 -4.6122
H 0.6613 -3.2341 -3.7782
H 6.5898 -2.0126 -0.0767
H 9.4614 -4.4141 0.0351
H 8.1677 -3.7140 -1.0109
H 7.9516 -3.7896 0.7946
H 10.4091 -0.0470 0.2930
H 9.2322 2.1341 0.2930
H 6.7459 2.1904 0.1104
