77
 
C 2.3270 0.0340 0.0000
N 1.4372 1.1253 0.0639
C 1.3936 2.6190 0.1230
C 2.5815 3.5582 0.1515
C 3.4036 3.5772 -1.1219
C 4.4223 4.7081 -1.0157
C 0.1996 0.5584 0.0403
C 0.3003 -0.7904 0.0354
C -0.8537 -1.6026 0.0641
C -2.1192 -0.9811 0.0532
C -2.2234 0.4162 0.0222
C -1.0673 1.1998 0.0276
N 1.6121 -1.1306 0.0145
C 2.1360 -2.4846 0.0787
C 3.0018 -2.7136 1.3277
C 3.4205 -4.1908 1.3019
C 4.3660 -4.6037 2.4160
Cu 4.4769 0.0580 0.0014
C 6.6267 0.0821 0.0028
N 7.4297 -0.7270 -0.7293
C 6.9677 -1.7334 -1.6707
C 6.0524 -2.6877 -0.9212
C 6.2164 -1.0593 -2.8288
C 8.7039 -0.3739 -0.4201
C 8.6694 0.6672 0.4672
C 9.8562 1.2473 0.9591
C 11.0878 0.7326 0.5221
C 11.1247 -0.3347 -0.3927
C 9.9277 -0.9001 -0.8793
N 7.3753 0.9959 0.7304
C 6.9699 2.0733 1.6888
C 7.2424 1.4971 3.0470
C 8.3436 1.9277 3.8070
C 8.8815 1.0647 4.7594
C 8.2969 -0.1879 4.9741
C 7.0853 -0.5132 4.3544
C 6.5393 0.3434 3.4056
H 0.8452 2.8774 1.0599
H 0.7808 2.9771 -0.7386
H 3.2028 3.3961 1.0510
H 2.1219 4.5806 0.2391
H 2.7581 3.7684 -2.0127
H 3.9077 2.5976 -1.2273
H 3.9009 5.6925 -0.9620
H 5.0867 4.7045 -1.9003
H 5.0287 4.5802 -0.0938
H -0.8120 -2.6788 0.0874
H -3.0254 -1.5736 0.0634
H -3.1978 0.8938 0.0005
H -1.1914 2.2755 0.0132
H 2.7212 -2.6876 -0.8364
H 1.2949 -3.2060 0.1311
H 2.4325 -2.4895 2.2616
H 3.8840 -2.0377 1.3030
H 3.9274 -4.3984 0.3363
H 2.5048 -4.8192 1.3692
H 5.3187 -4.0417 2.3327
H 4.5857 -5.6883 2.3001
H 3.9028 -4.4417 3.4108
H 7.8410 -2.2721 -2.0979
H 5.1575 -2.1021 -0.5522
H 6.6220 -3.1182 -0.0661
H 5.7392 -3.5163 -1.5867
H 5.2944 -0.5578 -2.4617
H 5.9332 -1.8116 -3.5941
H 6.8598 -0.2937 -3.3160
H 9.8614 2.0730 1.6517
H 12.0162 1.1619 0.8866
H 12.0861 -0.7155 -0.7210
H 9.9843 -1.7170 -1.5832
H 5.9278 2.4227 1.5506
H 7.6447 2.9494 1.5279
H 8.8672 2.8516 3.5912
H 9.7967 1.3389 5.2669
H 8.7850 -0.9069 5.6152
H 6.6043 -1.4615 4.5437
H 5.6410 0.0539 2.8707
