21
 
C -0.3280 -1.0820 0.0030
N -1.1497 -0.0368 -0.2074
H -2.1751 -0.0689 -0.3988
C -0.3636 1.0534 -0.1309
Cl -0.9215 2.7023 -0.3397
C 0.9273 0.6469 0.1343
Cl 2.3348 1.6708 0.3469
N 0.9437 -0.6947 0.2114
Cu -0.9444 -3.1417 0.0167
N -1.5465 -5.1535 0.0300
C -0.6247 -6.1137 0.3081
C -0.9807 -7.4637 0.2563
F -0.0703 -8.4246 0.5498
C -2.2800 -7.8119 -0.1189
C -3.2109 -6.8101 -0.4053
C -2.8263 -5.4692 -0.3032
H 1.7636 -1.3111 0.4051
H 0.3825 -5.8244 0.5783
H -2.5634 -8.8541 -0.1930
H -4.2144 -7.0705 -0.7159
H -3.5268 -4.6816 -0.5472
