44
 
C 1.0240 -0.6530 -0.0550
N 1.0465 0.6189 -0.0988
C 2.2570 1.3885 -0.2351
C -0.2751 1.1687 0.0901
C -1.1896 -0.0610 -0.0310
N -0.2794 -1.1670 0.1559
C -0.6626 -2.5279 0.4253
C -2.0282 -2.8719 0.5587
C -2.4169 -4.1801 0.8657
C -1.4561 -5.1740 1.0388
C -0.1028 -4.8591 0.9135
C 0.2954 -3.5478 0.6183
Cu 2.7802 -1.8697 -0.2955
N 4.4956 -3.0582 -0.5304
C 5.7409 -2.6774 -0.8437
N 6.5712 -3.7460 -0.8961
C 7.9705 -3.7587 -1.2572
C 8.6343 -2.5718 -1.6318
C 9.9684 -2.6046 -2.0454
C 10.6609 -3.8153 -2.0858
C 10.0253 -4.9947 -1.6996
C 8.6931 -4.9698 -1.2874
C 5.8031 -4.8170 -0.5794
C 4.5187 -4.3860 -0.3627
H 3.1414 0.7013 -0.3379
H 2.3816 2.0323 0.6638
H 2.1764 2.0438 -1.1281
H -0.5546 1.9423 -0.6554
H -0.3169 1.5884 1.1204
H -1.5774 -0.1488 -1.0721
H -2.0276 -0.0075 0.6940
H -2.8079 -2.1340 0.4402
H -3.4670 -4.4224 0.9751
H -1.7615 -6.1856 1.2789
H 0.6400 -5.6337 1.0588
H 1.3426 -3.3550 0.5730
H 6.0111 -1.6504 -1.0417
H 8.1306 -1.6166 -1.6259
H 10.4618 -1.6895 -2.3452
H 11.6893 -3.8411 -2.4185
H 10.5596 -5.9351 -1.7285
H 8.2380 -5.9077 -1.0090
H 6.1253 -5.8455 -0.5161
H 3.6618 -4.9895 -0.0943
