60
 
P 0.9316 -0.0618 -0.0387
C 0.1649 -1.4728 1.1067
C -1.3720 -1.5792 1.1710
C 0.6690 -2.9026 0.7504
C 0.6406 -1.3266 2.5724
C 0.4570 1.6784 0.7341
C 1.0637 1.9619 2.1238
C 0.9672 2.8634 -0.1240
C -1.0786 1.9204 0.8418
C 0.3983 -0.4373 -1.8636
C -1.1428 -0.4566 -2.0169
C 0.8821 0.6623 -2.8342
C 0.9344 -1.7528 -2.4576
Cu 3.3916 -0.0618 -0.0387
N 5.4916 -0.0618 -0.0387
C 6.3252 0.4498 -0.9534
N 7.6147 0.2622 -0.5863
C 8.8022 0.6304 -1.3219
C 8.7105 1.2593 -2.5811
C 9.8635 1.5506 -3.3139
C 11.1207 1.2276 -2.8016
C 11.2291 0.6269 -1.5481
C 10.0824 0.3313 -0.8120
C 7.5624 -0.3800 0.6060
C 6.2468 -0.5784 0.9387
H -1.8316 -1.9688 0.2671
H -1.8661 -0.6668 1.4614
H -1.6773 -2.3109 1.9471
H 0.2432 -3.3150 -0.1624
H 0.2921 -3.6411 1.4979
H 1.7777 -2.9870 0.7523
H 0.1574 -0.4980 3.0696
H 1.7505 -1.3246 2.6698
H 0.2664 -2.1617 3.2070
H 2.1694 1.9480 2.0864
H 0.7207 1.3485 2.9396
H 0.7257 2.9623 2.4798
H 2.0687 2.8462 -0.2375
H 0.6905 3.8312 0.3599
H 0.4706 2.9602 -1.0944
H -1.5794 1.2732 1.5559
H -1.5953 1.9150 -0.1349
H -1.3020 2.9209 1.2673
H -1.6198 0.4463 -1.6105
H -1.5959 -1.3501 -1.5943
H -1.4514 -0.5176 -3.0810
H 0.4729 1.6418 -2.5926
H 0.4820 0.4773 -3.8592
H 1.9856 0.7063 -2.9101
H 0.5264 -2.6413 -1.9900
H 2.0411 -1.7867 -2.4490
H 0.5835 -1.8624 -3.5098
H 5.9842 0.9355 -1.8560
H 7.7564 1.5167 -3.0167
H 9.7796 2.0185 -4.2859
H 12.0115 1.4410 -3.3757
H 12.2020 0.3776 -1.1459
H 10.2127 -0.1441 0.1478
H 8.4023 -0.6988 1.2045
H 5.8630 -1.0640 1.8259
