78
 
P 0.9931 0.0612 0.0788
C 0.2338 -1.0156 1.5423
C -1.3018 -1.1084 1.6302
C 0.7459 -2.4855 1.5597
C 0.7060 -0.5005 2.9222
C 0.5094 1.9382 0.3792
C 1.1055 2.5679 1.6536
C 1.0149 2.8716 -0.7503
C -1.0268 2.1888 0.4205
C 0.4541 -0.7622 -1.5898
C -1.0874 -0.8165 -1.7315
C 0.9365 0.0571 -2.8053
C 0.9843 -2.1861 -1.8356
Cu 3.4531 0.0612 0.0788
P 5.9131 0.0612 0.0788
C 6.7792 -0.2920 -1.5193
C 6.5355 0.4899 -2.6930
C 7.1646 0.1753 -3.9176
C 8.0172 -0.9240 -4.0009
C 8.2238 -1.7204 -2.8756
C 7.6120 -1.4091 -1.6543
C 6.3292 1.7908 0.3221
C 5.3179 2.7435 0.4625
C 5.6443 4.0905 0.6527
C 6.9839 4.4890 0.7126
C 8.0008 3.5361 0.6085
C 7.6767 2.1876 0.4178
C 6.4204 -1.1577 1.3375
C 6.0177 -2.5913 1.1393
C 6.8525 -3.5752 1.6942
C 6.5231 -4.9246 1.5988
C 5.3554 -5.3108 0.9411
C 4.5146 -4.3421 0.3790
C 4.8364 -2.9811 0.4832
H -1.7586 -1.7129 0.8537
H -1.7999 -0.1557 1.6848
H -1.6061 -1.6230 2.5636
H 0.3272 -3.1165 0.7794
H 0.3651 -3.0130 2.4663
H 1.8549 -2.5614 1.5882
H 0.2170 0.4236 3.1904
H 1.8161 -0.4708 3.0188
H 0.3280 -1.1450 3.7472
H 2.2092 2.5569 1.6300
H 0.7637 2.1760 2.5943
H 0.7556 3.6209 1.7461
H 2.1161 2.8354 -0.8576
H 0.7293 3.9273 -0.5262
H 0.5205 2.7222 -1.7145
H -1.5215 1.7380 1.2738
H -1.5429 1.9404 -0.5232
H -1.2585 3.2608 0.5841
H -1.5639 0.1589 -1.5690
H -1.5433 -1.5725 -1.0990
H -1.3979 -1.1449 -2.7440
H 0.5276 1.0648 -2.8149
H 0.5306 -0.3766 -3.7495
H 2.0399 0.0799 -2.8917
H 0.5731 -2.9261 -1.1599
H 2.0906 -2.2224 -1.8239
H 0.6272 -2.5555 -2.8242
H 5.8587 1.3383 -2.6934
H 6.9956 0.7699 -4.8135
H 8.5085 -1.1703 -4.9384
H 8.8598 -2.5908 -2.9485
H 7.7793 -2.0620 -0.8206
H 4.2820 2.4402 0.4284
H 4.8580 4.8259 0.7525
H 7.2329 5.5342 0.8471
H 9.0377 3.8449 0.6743
H 8.4765 1.4593 0.3459
H 6.0401 -0.8265 2.3255
H 7.5294 -1.0906 1.4037
H 7.7624 -3.2929 2.2103
H 7.1755 -5.6666 2.0407
H 5.1050 -6.3614 0.8736
H 3.6104 -4.6498 -0.1295
H 4.1654 -2.2434 0.0616
