36
 
C -0.2133 -1.1651 0.0465
N 0.9125 -0.3295 0.2764
C 2.3479 -0.7057 0.5566
C 0.4104 0.9774 0.2018
Cl 1.1730 2.6134 0.3722
C -0.9386 0.9141 -0.0526
Cl -2.0572 2.2872 -0.2522
N -1.3129 -0.3728 -0.1400
C -2.6955 -0.7648 -0.4307
Cu -0.5254 -3.4185 -0.0001
N -0.7778 -5.4969 -0.0401
C 0.3054 -6.3444 -0.0145
C 1.6917 -5.8293 0.0094
C 0.1430 -7.7304 -0.0151
C -1.1160 -8.2898 -0.0233
C -1.2559 -9.7745 -0.0222
C -2.2230 -7.4524 -0.0309
C -2.0439 -6.0495 -0.0321
C -3.2577 -5.1762 -0.0504
H 2.5175 -1.8059 0.5797
H 2.7345 -0.3296 1.5419
H 3.0753 -0.3086 -0.1974
H -3.3496 0.1277 -0.5568
H -3.1226 -1.3530 0.3936
H -2.7582 -1.3239 -1.3808
H 1.6674 -4.7305 0.0161
H 2.2454 -6.1909 -0.8803
H 2.2182 -6.1956 0.9168
H 1.0032 -8.3786 -0.0049
H -0.2605 -10.2655 -0.0113
H -1.7938 -10.0968 -0.9304
H -1.8113 -10.0937 0.8769
H -3.2069 -7.8999 -0.0439
H -4.1964 -5.7746 -0.0670
H -3.2447 -4.5420 -0.9559
H -3.2731 -4.5350 0.8459
