51
 
C 1.0240 -0.6530 -0.0550
N 1.0525 0.6203 -0.1020
C 2.2711 1.4094 -0.2214
C 2.4067 2.3344 0.9995
C 3.5397 0.5171 -0.3533
C -0.2833 1.1616 0.0712
C -1.1922 -0.0686 -0.0627
N -0.2743 -1.1614 0.1328
C -0.6471 -2.5383 0.4203
C -1.6003 -3.0897 -0.6448
C 0.5892 -3.4485 0.5479
Cu 2.7802 -1.8697 -0.2955
N 4.4956 -3.0582 -0.5304
C 4.6506 -3.9535 -1.4258
C 3.6608 -4.2048 -2.4946
C 2.8541 -3.1524 -2.9682
C 1.9006 -3.3831 -3.9625
C 1.7268 -4.6693 -4.4763
C 2.5346 -5.7172 -4.0246
C 3.5140 -5.4837 -3.0522
N 5.8932 -4.6062 -1.3087
C 6.6741 -3.8519 -0.3606
C 5.6200 -3.0067 0.3636
H 2.1833 2.0452 -1.1301
H 2.4788 1.7358 1.9330
H 1.5278 3.0104 1.0854
H 3.3081 2.9745 0.9066
H 3.6921 -0.1129 0.5405
H 4.4273 1.1674 -0.4843
H 3.4791 -0.1453 -1.2282
H -0.5581 1.9428 -0.6692
H -0.3533 1.5660 1.1054
H -1.5555 -0.1461 -1.1139
H -2.0507 -0.0412 0.6402
H -1.1892 -2.5390 1.3943
H -1.0986 -3.1175 -1.6339
H -2.5149 -2.4629 -0.7171
H -1.9208 -4.1179 -0.3690
H 1.1159 -3.5375 -0.4186
H 0.2522 -4.4622 0.8588
H 1.2729 -3.0648 1.3326
H 2.9772 -2.1462 -2.5904
H 1.2922 -2.5657 -4.3293
H 0.9690 -4.8521 -5.2271
H 2.3966 -6.7129 -4.4242
H 4.1269 -6.3072 -2.7095
H 6.2846 -5.2664 -1.9960
H 7.3308 -3.1757 -0.9544
H 7.2887 -4.4657 0.3297
H 5.9802 -1.9789 0.5743
H 5.2945 -3.5029 1.3061
