102
 
P 1.0650 -0.0206 -0.0731
C 0.3023 -0.9833 -1.6190
C -1.2331 -1.0266 -1.7525
C 0.8255 -0.4585 -2.9881
C 0.7586 -2.4614 -1.6479
C 0.5271 -1.0092 1.5457
C 1.1484 -2.4216 1.6638
C 0.9585 -0.3280 2.8572
C -1.0075 -1.1186 1.7533
C 0.4792 1.8330 -0.2305
C -1.0555 1.9760 -0.2495
C 0.8603 2.6815 0.9960
C 1.0257 2.5880 -1.4599
Cu 3.5250 -0.0206 -0.0731
P 5.9850 -0.0206 -0.0731
C 6.4592 -0.9855 1.5573
C 7.5487 -1.8836 1.9079
C 8.7847 -2.0905 1.1550
C 7.5267 -2.6607 3.0970
C 6.4898 -2.5608 4.0077
C 6.3986 -3.3745 5.2560
C 5.5054 -1.6564 3.7684
C 5.4952 -0.9015 2.6013
C 4.3878 -0.0040 2.5142
C 6.4519 -0.5874 -1.8885
C 6.0275 0.2466 -3.0020
C 5.2056 1.4984 -2.9036
C 6.3783 -0.0434 -4.3433
C 7.1514 -1.1327 -4.6803
C 7.5514 -1.4480 -6.0936
C 7.5799 -1.9607 -3.6871
C 7.2699 -1.7491 -2.3270
C 7.9432 -2.8308 -1.5309
C 6.5310 1.7167 0.3325
C 5.6015 2.7461 0.6272
C 4.1757 2.5958 0.6201
C 5.9717 4.0317 0.9473
C 7.2902 4.3844 0.9880
C 7.6386 5.7748 1.3797
C 8.2565 3.4521 0.6209
C 7.9027 2.1382 0.2475
C 9.0237 1.2996 -0.3115
H -1.6890 -0.0830 -2.0270
H -1.7390 -1.4420 -0.8994
H -1.5326 -1.6972 -2.5827
H 0.4125 0.5008 -3.2899
H 0.4497 -1.1050 -3.8166
H 1.9345 -0.4593 -3.0610
H 0.2346 -3.0527 -0.9054
H 1.8671 -2.5727 -1.6317
H 0.4000 -2.9802 -2.5655
H 2.2519 -2.3725 1.7361
H 0.9091 -3.1395 0.9039
H 0.7526 -2.9282 2.5731
H 2.0070 -0.2630 2.8773
H 0.6796 -0.9374 3.7479
H 0.5333 0.6516 3.0772
H -1.5296 -1.7126 1.0199
H -1.4890 -0.1340 1.9011
H -1.2441 -1.6720 2.6866
H -1.5297 1.4720 0.6020
H -1.4990 1.6785 -1.1894
H -1.3645 3.0412 -0.1822
H 0.5027 2.2893 1.9425
H 0.4440 3.7111 0.9399
H 1.8951 2.8485 1.0600
H 0.6141 2.2406 -2.3992
H 2.1250 2.5561 -1.5241
H 0.6963 3.6512 -1.4353
H 8.7355 -1.4153 0.3323
H 8.8947 -3.1564 0.8587
H 9.6626 -1.8144 1.7790
H 8.3274 -3.3577 3.3179
H 7.2432 -4.0827 5.3393
H 5.4417 -3.9460 5.2526
H 6.3942 -2.6846 6.1263
H 4.7040 -1.5615 4.4970
H 3.8631 0.1222 3.4706
H 3.7626 -0.5134 1.7777
H 4.8330 0.9738 2.3568
H 4.9432 1.7897 -1.8837
H 4.2669 1.3445 -3.4799
H 5.7585 2.3398 -3.3850
H 6.0565 0.6057 -5.1501
H 7.1281 -0.7247 -6.8178
H 7.1946 -2.4692 -6.3520
H 8.6614 -1.4326 -6.1756
H 8.1991 -2.7958 -4.0147
H 8.3530 -3.6835 -2.1272
H 7.2562 -3.3338 -0.8298
H 8.9642 -2.4808 -1.2984
H 3.9649 1.6349 0.5406
H 3.7275 3.1472 -0.2243
H 3.8132 2.8445 1.6326
H 5.2004 4.7623 1.1837
H 6.7219 6.3823 1.5605
H 8.2108 6.2390 0.5565
H 8.2262 5.7465 2.3180
H 9.2891 3.7687 0.5989
H 9.9814 1.8586 -0.3621
H 8.7825 0.9960 -1.3562
H 9.2671 0.4606 0.3159
