23
 
N -1.3900 -0.1120 -0.0540
C -0.8088 1.1110 0.0611
C 0.5839 1.2296 0.0399
C 1.3739 0.0737 -0.0429
C 2.8696 0.1676 -0.1317
C 0.7483 -1.1800 -0.0815
C -0.6478 -1.2492 -0.1166
Cu -3.4756 -0.2017 -0.2821
O -5.5116 -0.2893 -0.5047
C -6.2275 -1.3722 -0.6677
N -7.5354 -1.0656 -0.7966
C -7.5739 0.2826 -0.7234
C -6.2956 0.7541 -0.5227
H -1.4279 1.9982 0.0808
H 1.0383 2.2124 0.0605
H 3.2087 1.2246 -0.1826
H 3.2058 -0.3372 -1.0639
H 3.3474 -0.3246 0.7391
H 1.3350 -2.0894 -0.1263
H -1.1431 -2.2083 -0.1896
H -5.8334 -2.3793 -0.6512
H -8.4699 0.8806 -0.8245
H -5.9712 1.7841 -0.4511
