46
 
N -1.3987 -0.4663 -0.0686
C -0.5579 0.3272 -0.7914
C 0.8270 0.1108 -0.7504
C 1.3405 -0.8821 0.0779
C 0.4745 -1.6207 0.8832
C -0.9058 -1.4063 0.7872
Cu -3.4063 -0.3475 -0.2473
P -5.8119 -0.2616 -0.3984
O -6.8079 1.0884 -0.8143
C -6.2080 1.6987 -1.9671
C -6.8566 3.0234 -2.4323
C -4.6949 1.9813 -1.8688
O -6.0587 -1.0484 -1.9335
C -5.6046 -2.4008 -1.9439
C -5.9650 -3.0086 -3.3134
C -4.0860 -2.4448 -1.7803
O -6.5904 -1.0285 0.8991
C -6.2440 -0.3920 2.1074
C -6.6706 1.0853 2.1586
C -6.9733 -1.1131 3.2355
H -0.9472 1.1108 -1.4181
H 1.5065 0.7001 -1.3542
H 2.4085 -1.0668 0.0984
H 0.8733 -2.3687 1.5528
H -1.5884 -2.0179 1.3675
H -6.3757 0.9774 -2.7710
H -6.6955 3.8554 -1.7080
H -7.9273 2.9208 -2.6513
H -6.4204 3.3326 -3.4169
H -4.4790 2.7783 -1.1351
H -4.3167 2.2726 -2.8654
H -4.1433 1.0822 -1.6108
H -6.0736 -3.0271 -1.1412
H -5.5195 -2.3570 -4.1041
H -7.0705 -3.0743 -3.4528
H -5.5590 -4.0399 -3.4137
H -3.5887 -1.8059 -2.5405
H -3.6953 -3.4722 -1.8408
H -3.8215 -2.1192 -0.7758
H -5.1520 -0.4826 2.2993
H -7.7551 1.1780 1.9218
H -6.0688 1.7055 1.4747
H -6.4505 1.5197 3.1493
H -8.0738 -1.0466 3.0870
H -6.7206 -0.6362 4.2061
H -6.6750 -2.1798 3.2778
