24
 
N -1.3900 -0.1120 -0.0540
C -0.7920 1.1097 -0.0893
C 0.6073 1.2149 -0.0645
C 1.2909 2.5486 -0.1462
C 1.3680 0.0415 0.0072
C 0.7320 -1.2009 0.0573
C -0.6643 -1.2586 0.0239
Cu -3.4756 -0.2017 -0.2821
O -5.5116 -0.2893 -0.5047
C -6.2245 -1.3878 -0.5166
C -7.5512 -1.0395 -0.6820
C -7.5833 0.3404 -0.7653
C -6.2759 0.7637 -0.6503
H -1.4109 1.9944 -0.1683
H 0.5585 3.3833 -0.1754
H 1.9023 2.5900 -1.0729
H 1.9562 2.6914 0.7309
H 2.4502 0.0908 0.0145
H 1.3177 -2.1099 0.0995
H -1.1694 -2.2152 0.0258
H -5.8250 -2.3877 -0.4151
H -8.3982 -1.7100 -0.7349
H -8.4574 0.9649 -0.8938
H -5.9212 1.7857 -0.6689
