40
 
N -1.4076 -0.0499 0.0293
C -0.8685 0.2417 1.2618
C 0.4625 0.6430 1.3968
C 1.2989 0.4832 0.3497
C 0.8158 -0.0661 -0.8209
C -0.5625 -0.1742 -1.0220
Cu -3.4577 -0.1853 -0.2701
P -5.8629 -0.3218 -0.5265
N -6.6328 1.2935 -0.7123
C -6.3687 2.1855 0.3927
C -6.1043 1.9403 -1.9133
N -6.2934 -1.2043 -2.0293
C -5.7975 -2.5768 -2.0069
C -7.7426 -1.2963 -2.1817
N -6.6401 -1.0467 0.8957
C -6.1479 -2.4042 1.0833
C -6.4450 -0.3325 2.1007
H -1.4618 0.2124 2.1357
H 0.8552 1.0433 2.2967
H 2.3117 0.7663 0.4591
H 1.4977 -0.3710 -1.5662
H -0.9495 -0.3947 -1.9901
H -6.7952 1.9580 1.1915
H -6.7696 3.1471 0.3086
H -5.4420 2.4015 0.5520
H -6.2422 1.3368 -2.7922
H -5.1498 2.2032 -1.8274
H -6.4727 2.9396 -2.0549
H -4.8389 -2.6728 -1.9697
H -6.0039 -3.1545 -2.8517
H -6.1996 -3.1785 -1.4227
H -8.1508 -0.2941 -2.2566
H -8.2048 -1.8099 -1.3363
H -7.9919 -1.8443 -3.0972
H -6.2636 -3.0084 0.2908
H -6.5649 -2.8849 1.9380
H -5.2105 -2.4239 1.3895
H -6.8696 0.4995 2.1483
H -5.5308 -0.2654 2.4013
H -6.8885 -0.7439 2.9521
