23
 
N -1.4185 -0.0852 -0.0613
C -0.5691 -0.5993 -0.9982
C 0.7945 -0.7746 -0.7229
C 1.3349 -0.1911 0.3947
C 0.5181 0.5611 1.2183
C -0.8749 0.4972 1.0551
Cu -3.4767 -0.1895 -0.2962
N -5.5400 -0.2703 -0.5036
C -6.3361 0.6424 0.1379
F -5.7748 1.6676 0.8161
C -7.7314 0.5964 -0.0212
C -8.3152 -0.5467 -0.5385
C -7.5181 -1.4875 -1.1397
C -6.1380 -1.2461 -1.2484
H -0.9216 -0.9486 -1.9408
H 1.4608 -1.3374 -1.3664
H 2.3913 -0.3058 0.5880
H 0.9666 1.1473 1.9932
H -1.5111 0.9435 1.7961
H -8.3640 1.3972 0.3009
H -9.3829 -0.7092 -0.5107
H -7.9979 -2.3721 -1.5437
H -5.5722 -1.9427 -1.8183
