24
 
N -0.6590 -1.2280 -0.0510
C -1.4082 -0.1026 -0.1374
O -2.7526 -0.2015 -0.2592
C -3.4219 -1.4122 -0.3464
C -0.7779 1.1504 -0.0677
C 0.6169 1.2099 0.0537
C 1.3584 0.0302 0.1382
C 0.6901 -1.1935 0.1068
Cu -1.5756 -3.1044 -0.2726
O -2.4704 -4.9360 -0.4889
C -3.7369 -5.1466 -0.7408
N -3.9926 -6.4678 -0.8356
C -2.7940 -7.0575 -0.6363
C -1.8490 -6.0810 -0.4087
H -4.5108 -1.2122 -0.3680
H -3.2044 -2.0596 0.5184
H -3.1296 -1.9546 -1.2604
H -1.3506 2.0669 -0.1192
H 1.1259 2.1655 0.0790
H 2.4387 0.0615 0.2125
H 1.2477 -2.1206 0.1418
H -4.4836 -4.3698 -0.8342
H -2.6204 -8.1249 -0.6654
H -0.7891 -6.2102 -0.2335
