20
 
N -0.6790 1.1930 0.0010
C 0.6800 1.2069 -0.0105
F 1.3358 2.3926 -0.0395
C 1.3941 0.0061 -0.0225
C 0.6942 -1.2024 -0.0007
F 1.3696 -2.3781 -0.0007
C -0.7035 -1.1951 0.0214
C -1.3809 0.0290 0.0109
F -2.7352 0.0614 0.0419
Cu -1.6914 3.0329 0.0055
O -2.6796 4.8289 0.0099
C -3.9766 5.0000 -0.0128
N -4.2853 6.3137 0.0116
C -3.0891 6.9405 0.0445
C -2.0901 5.9930 0.0452
H 2.4764 0.0129 -0.0482
H -1.2537 -2.1268 0.0471
H -4.7042 4.2003 -0.0296
H -2.9546 8.0139 0.0663
H -1.0204 6.1547 0.0632
