69
 
P 1.0545 0.0727 -0.0418
O 0.0128 -1.2793 -0.2156
C 0.5292 -1.9632 -1.3702
C -0.1787 -3.2724 -1.6646
O 0.5271 0.7410 1.4365
C 0.6875 -0.1464 2.5007
C 0.1244 0.5482 3.7385
O 0.5801 0.8166 -1.5182
C -0.8418 0.9655 -1.4772
C -1.3806 1.5048 -2.7859
Cu 3.5145 0.0727 -0.0418
P 5.9745 0.0727 -0.0418
C 6.7827 -1.2695 0.8988
C 7.5254 -2.3262 0.3261
C 7.9292 -3.4193 1.1174
C 7.6064 -3.4771 2.4823
C 7.9965 -4.6671 3.3198
C 6.8854 -2.4227 3.0548
C 6.4714 -1.3415 2.2683
C 6.4314 -0.0823 -1.7718
C 5.4402 -0.1543 -2.7499
C 5.7958 -0.2726 -4.0988
C 7.1482 -0.3114 -4.4806
C 7.5353 -0.5229 -5.9155
C 8.1429 -0.1753 -3.5025
C 7.7869 -0.0578 -2.1552
C 6.3976 1.6391 0.7713
C 5.3833 2.4824 1.2412
C 5.6911 3.7590 1.7369
C 7.0228 4.2066 1.7753
C 7.3733 5.5919 2.2448
C 8.0421 3.3544 1.3355
C 7.7351 2.0835 0.8305
H 1.6229 -2.1888 -1.2909
H 0.3589 -1.3637 -2.2907
H 0.0703 -4.0373 -0.9036
H 0.1672 -3.6434 -2.6593
H -1.2729 -3.1081 -1.7199
H 1.7654 -0.3589 2.6667
H 0.1036 -1.0788 2.3408
H 0.6706 1.4992 3.9252
H 0.2189 -0.1039 4.6295
H -0.9507 0.7935 3.5851
H -1.1514 1.6388 -0.6493
H -1.3833 -0.0011 -1.3780
H -0.9858 2.5212 -2.9667
H -2.4924 1.5467 -2.7248
H -1.1061 0.8260 -3.6222
H 7.7540 -2.3601 -0.7282
H 8.4718 -4.2408 0.6641
H 8.5052 -5.4456 2.7114
H 7.0898 -5.1309 3.7676
H 8.6815 -4.3559 4.1356
H 6.6111 -2.4533 4.1037
H 5.8650 -0.5707 2.7266
H 4.3955 -0.1149 -2.4613
H 5.0156 -0.3438 -4.8439
H 6.6408 -0.6666 -6.5579
H 8.1495 -1.4472 -5.9817
H 8.1259 0.3321 -6.3045
H 9.1915 -0.1771 -3.7827
H 8.5736 0.0390 -1.4168
H 4.3507 2.1664 1.1893
H 4.8880 4.4051 2.0685
H 6.4680 6.1883 2.4860
H 7.9246 6.1208 1.4363
H 8.0237 5.5446 3.1432
H 9.0721 3.6953 1.3532
H 8.5476 1.4772 0.4548
