22
 
N 1.0946 0.0204 0.0252
C 0.6360 -1.3368 -0.3005
C 0.6361 0.4163 1.3636
C 0.6417 0.9822 -0.9881
Cu 3.1946 0.0204 0.0252
N 5.2946 0.0204 0.0252
C 6.1245 -0.5035 -0.8907
O 7.3812 -0.3057 -0.5521
C 7.3842 0.3506 0.5901
C 6.0771 0.5634 0.9668
H -0.4759 -1.3912 -0.3124
H 1.0252 -2.0617 0.4464
H 1.0219 -1.6441 -1.2961
H -0.4759 0.4310 1.4173
H 1.0219 1.4265 1.6186
H 1.0252 -0.2918 2.1263
H -0.4701 1.0233 -1.0315
H 1.0327 0.6973 -1.9881
H 1.0327 1.9957 -0.7557
H 5.8026 -1.0174 -1.7860
H 8.2693 0.6630 1.1282
H 5.7211 1.0724 1.8527
