39
 
N -1.4006 -0.0796 -0.0486
C -0.6004 -1.1736 0.1922
C 0.7095 -1.0300 0.6281
C 1.3203 0.1695 0.5702
N 2.6760 0.3242 1.0320
C 3.6289 -0.7791 0.9647
C 3.1077 1.5964 1.5964
C 0.5828 1.2350 0.0451
C -0.8023 1.1415 -0.1152
Cu -3.4763 -0.1890 -0.2787
N -5.5482 -0.3180 -0.5101
C -6.2122 -1.5256 -0.6190
C -7.5289 -1.5881 -1.0606
C -8.2815 -0.4720 -1.1129
N -9.6445 -0.5281 -1.5757
C -10.4568 -1.7267 -1.3933
C -10.2254 0.6215 -2.2572
C -7.6811 0.7208 -0.6984
C -6.2950 0.8159 -0.5502
H -0.9806 -2.1446 0.0564
H 1.2133 -1.8465 0.9893
H 3.2021 -1.6525 0.5408
H 3.9804 -1.0439 1.9507
H 4.4728 -0.5080 0.3463
H 2.3117 2.3109 1.5969
H 3.9230 2.0066 1.0177
H 3.4307 1.4704 2.6219
H 1.0687 2.1173 -0.2181
H -1.3766 2.0117 -0.2943
H -5.7177 -2.4289 -0.3994
H -7.9285 -2.4909 -1.3382
H -9.9287 -2.4965 -0.8902
H -10.7704 -2.1268 -2.3458
H -11.3294 -1.5006 -0.7968
H -9.5218 1.4235 -2.3340
H -11.0862 0.9846 -1.7141
H -10.5274 0.3580 -3.2628
H -8.2715 1.5584 -0.5159
H -5.8319 1.7590 -0.4513
