42
 
C 0.9035 -0.6382 -0.0060
N -0.3473 -1.1145 -0.1811
C -1.1211 -0.0176 -0.1019
C -0.3134 1.0770 0.1096
O 0.9273 0.6582 0.1746
Cu 2.6553 -1.8860 -0.0164
P 4.6706 -3.2966 -0.0245
C 5.7764 -2.9485 -1.4123
C 6.3101 -1.6493 -1.5213
C 6.8898 -1.2175 -2.7231
C 6.9572 -2.0802 -3.8187
C 6.4502 -3.3762 -3.7149
C 5.8457 -3.8023 -2.5276
C 5.7208 -2.7584 1.3647
C 5.4072 -1.7283 2.2500
C 6.2857 -1.4304 3.3149
C 7.4647 -2.1658 3.5113
C 7.7481 -3.2359 2.6840
C 6.8813 -3.5345 1.6457
C 4.1198 -5.0350 -0.1922
C 2.7404 -5.3290 -0.2835
C 2.3003 -6.6232 -0.5153
C 3.2207 -7.6567 -0.5682
C 4.5867 -7.3660 -0.4394
O 5.3950 -8.2764 -0.4608
N 5.0156 -6.0580 -0.2967
H -2.1989 -0.0152 -0.1937
H -0.6286 2.1074 0.2069
H 6.2110 -0.9392 -0.7093
H 7.2502 -0.2004 -2.8239
H 7.3771 -1.7367 -4.7568
H 6.4821 -4.0363 -4.5721
H 5.3890 -4.7766 -2.5178
H 4.4840 -1.1838 2.1316
H 6.0570 -0.6322 4.0001
H 8.1519 -1.9336 4.3146
H 8.6350 -3.8477 2.8408
H 7.1728 -4.3954 1.1001
H 1.9751 -4.5856 -0.1905
H 1.2392 -6.8187 -0.6378
H 2.8623 -8.6710 -0.7023
H 6.0403 -5.8429 -0.2481
