42
 
P 0.9818 -0.0602 -0.0777
C 0.0671 0.0613 1.4975
C 0.5297 1.5244 -0.8387
C 0.4103 -1.6544 -0.8012
C -1.1239 -1.5966 -0.9707
C 1.0444 -1.8253 -2.1928
C 0.7884 -2.8402 0.0930
Cu 3.4418 -0.0602 -0.0777
N 5.5418 -0.0602 -0.0777
C 6.2386 -0.6329 0.9611
N 5.5411 -1.3113 2.0266
C 6.0845 -1.4151 3.3822
C 4.2573 -1.9560 1.7901
C 7.6458 -0.5149 0.9675
C 8.2919 0.1683 -0.0627
C 7.5501 0.7391 -1.0923
C 6.1630 0.6148 -1.0803
H -1.0288 0.0956 1.4096
H 0.4269 0.9714 2.0252
H 0.3832 -0.7862 2.1452
H -0.5816 1.5792 -0.8834
H 0.9089 1.5430 -1.8813
H 0.9194 2.3855 -0.2658
H -1.4155 -0.7399 -1.6186
H -1.6405 -1.4812 0.0020
H -1.5107 -2.5264 -1.4363
H 0.7706 -0.9785 -2.8605
H 0.6852 -2.7629 -2.6714
H 2.1515 -1.8700 -2.1217
H 0.3188 -2.7509 1.0925
H 1.8873 -2.9008 0.2142
H 0.4256 -3.7893 -0.3562
H 7.0690 -0.9263 3.5127
H 6.1854 -2.4802 3.6853
H 5.3955 -0.9170 4.0977
H 3.9921 -2.0148 0.7257
H 3.4672 -1.5027 2.4176
H 4.3619 -3.0225 2.1146
H 8.2583 -0.9501 1.7430
H 9.3705 0.2599 -0.0590
H 8.0449 1.2828 -1.8863
H 5.5710 1.0739 -1.8608
