30
 
N -0.3280 -1.0820 0.0030
C 0.8987 -0.5844 -0.2170
O 0.8858 0.7311 -0.1675
C -0.3483 1.1044 0.1034
C -1.1269 -0.0267 0.2047
Cu -0.9301 -3.0938 0.0163
N -1.5321 -5.1056 0.0297
C -2.7273 -5.5022 -0.2453
C -3.7938 -4.6037 -0.8475
C -4.7717 -5.1541 -1.7129
C -5.6680 -4.3242 -2.4119
C -5.6068 -2.9381 -2.2691
C -4.6828 -2.3833 -1.4036
C -3.8130 -3.1989 -0.6967
N -2.8019 -6.9110 -0.2357
C -1.4755 -7.4405 -0.0453
C -0.6483 -6.2030 0.3163
H 1.7674 -1.1830 -0.4555
H -0.6782 2.1274 0.2269
H -2.1827 -0.0834 0.4356
H -4.8314 -6.2173 -1.8957
H -6.3982 -4.7482 -3.0870
H -6.2731 -2.2849 -2.8164
H -4.6225 -1.3088 -1.2713
H -3.2268 -2.6497 -0.0559
H -3.6128 -7.4792 -0.5160
H -1.1408 -7.8442 -1.0243
H -1.4183 -8.2273 0.7380
H 0.3366 -6.1585 -0.1893
H -0.4976 -6.1722 1.4206
