36
 
N 1.0240 -0.6530 -0.0550
C 1.0114 0.6286 -0.0131
C 2.2294 1.4936 -0.1222
C 3.5122 0.9443 -0.3357
C 4.6403 1.7604 -0.4178
C 4.5174 3.1408 -0.2865
C 3.2600 3.7093 -0.0873
C 2.1235 2.8969 -0.0095
N -0.3035 1.1224 0.1286
C -1.2058 0.0200 -0.0575
C -0.2962 -1.2033 0.1013
Cu 2.7394 -1.8414 -0.2899
N 4.4547 -3.0299 -0.5248
C 4.4129 -4.3339 -0.1514
N 5.5388 -5.0897 -0.1939
C 6.7268 -4.5625 -0.6009
O 7.8554 -5.3108 -0.5906
C 7.9039 -6.6027 -0.1076
C 6.7817 -3.2262 -1.0081
C 5.6110 -2.4672 -0.9627
H 3.6839 -0.0925 -0.4539
H 5.6136 1.3158 -0.5827
H 5.3970 3.7682 -0.3419
H 3.1659 4.7829 0.0103
H 1.1728 3.3835 0.1463
H -0.5916 2.1093 0.1038
H -1.5663 0.0910 -1.1086
H -2.0673 0.0055 0.6416
H -0.5403 -1.9827 -0.6502
H -0.3535 -1.6205 1.1309
H 3.4849 -4.7676 0.1936
H 8.9368 -6.9953 -0.2021
H 7.2157 -7.2539 -0.6870
H 7.6158 -6.6210 0.9667
H 7.7140 -2.7761 -1.3263
H 5.6312 -1.4209 -1.2362
