66
 
P 1.0513 -0.0723 -0.0463
C 0.2921 0.0215 -1.8091
C -1.2394 0.0893 -1.8698
C 0.8528 1.2026 -2.6253
C 0.7399 -1.2223 -2.6244
C 0.5824 -1.7433 0.8104
C 1.1914 -2.9567 0.0889
C 1.1306 -1.7979 2.2568
C -0.9514 -1.9984 0.9623
C 0.5804 1.5161 0.6690
C -0.2556 1.4792 1.7967
C -0.7230 2.6344 2.4038
C -0.3732 3.9059 1.9068
N -0.9382 5.1209 2.4761
C -1.8941 5.1338 3.5863
C -0.6668 6.4438 1.9305
C 0.5386 3.9242 0.8076
C 1.0084 2.7482 0.2088
Cu 3.5113 -0.0723 -0.0463
N 5.6113 -0.0723 -0.0463
C 6.4460 -0.9788 0.4800
N 7.7364 -0.6189 0.2793
C 8.9246 -1.2967 0.7473
C 8.8325 -2.4767 1.5150
C 9.9832 -3.0855 2.0226
C 11.2394 -2.5331 1.7697
C 11.3494 -1.3783 0.9961
C 10.2050 -0.7646 0.4866
C 7.6833 0.5433 -0.4161
C 6.3666 0.8794 -0.6084
H -1.6238 1.0250 -1.4267
H -1.7173 -0.7505 -1.3777
H -1.5808 0.0023 -2.9261
H 0.4578 2.1705 -2.2798
H 0.5242 1.1194 -3.6888
H 1.9656 1.1986 -2.6276
H 0.1739 -2.1073 -2.3454
H 1.8443 -1.3814 -2.5761
H 0.4606 -1.1561 -3.6967
H 2.2766 -2.8062 -0.0802
H 0.6902 -3.2198 -0.8350
H 1.0149 -3.8886 0.6648
H 2.2200 -1.6133 2.2994
H 0.9380 -2.8118 2.6873
H 0.6086 -1.1051 2.9449
H -1.4815 -2.1450 0.0202
H -1.4796 -1.2266 1.5556
H -1.1380 -2.9591 1.4885
H -0.5848 0.5574 2.2310
H -1.3737 2.4719 3.2455
H -2.1537 4.1592 4.0194
H -2.8531 5.5807 3.2446
H -1.4961 5.7495 4.4202
H 0.0216 6.4709 1.0796
H -0.2322 7.0912 2.7188
H -1.6173 6.8903 1.5695
H 0.9131 4.8196 0.3583
H 1.6996 2.8068 -0.6154
H 6.1051 -1.8594 1.0047
H 7.8791 -2.9288 1.7440
H 9.8984 -3.9816 2.6231
H 12.1279 -2.9976 2.1748
H 12.3221 -0.9477 0.7979
H 10.3368 0.1340 -0.0960
H 8.5235 1.1295 -0.7568
H 5.9817 1.7516 -1.1197
