39
 
N -0.6590 -1.2280 -0.0510
C -1.4279 -0.0786 0.0055
N -2.8912 -0.1205 -0.0038
C -3.6875 -1.3466 -0.0223
C -3.7292 1.0808 0.0348
C -0.7332 1.1591 0.0630
C 0.6563 1.1957 0.0480
C 1.3818 0.0160 0.0019
C 0.7018 -1.1977 -0.0320
Cu -1.5756 -3.1044 -0.2726
N -2.4923 -4.9807 -0.4941
C -1.8038 -6.1123 -0.1695
N -0.5008 -5.9969 0.4220
C 0.0107 -6.9896 1.3675
C 0.3444 -4.8482 0.1234
C -2.4281 -7.3627 -0.3689
C -3.6948 -7.4130 -0.9630
C -4.3568 -6.2321 -1.2942
C -3.7485 -5.0115 -1.0102
H -3.2223 -2.2515 0.3080
H -4.2648 -1.4171 -0.9715
H -4.4314 -1.2902 0.8024
H -3.2068 2.0419 0.0875
H -4.3804 1.0482 0.9366
H -4.3772 1.1199 -0.8655
H -1.2054 2.1210 0.1065
H 1.1686 2.1501 0.0685
H 2.4630 0.0472 -0.0228
H 1.2625 -2.1188 -0.0909
H -0.7989 -7.6068 1.8163
H 0.4881 -6.4788 2.2317
H 0.7859 -7.6309 0.8932
H 0.0209 -4.2682 -0.7471
H 1.3228 -5.2556 -0.2224
H 0.5195 -4.2505 1.0336
H -1.9374 -8.2920 -0.1123
H -4.1639 -8.3658 -1.1749
H -5.3250 -6.2609 -1.7794
H -4.2354 -4.0861 -1.2885
