37
 
P 1.0498 -0.0639 0.0586
C 0.3108 1.3079 1.0025
C -1.0462 1.6694 1.0733
C -1.4450 2.7453 1.8891
C -0.5085 3.4475 2.6555
C 0.8333 3.0824 2.6110
C 1.2377 2.0292 1.7877
C 0.6256 0.3302 -1.6473
C 1.6369 0.4428 -2.6044
C 1.3108 0.6064 -3.9574
C -0.0274 0.6540 -4.3626
C -1.0447 0.5163 -3.4184
C -0.7223 0.3446 -2.0686
C 0.5649 -1.5589 0.9367
C -0.7992 -1.8922 1.0077
C -1.2157 -3.0662 1.6387
C -0.2719 -3.9234 2.2042
C 1.0935 -3.6086 2.1286
C 1.5208 -2.4254 1.4889
Cu 3.5098 -0.0639 0.0586
C 5.6598 -0.0639 0.0586
O 6.8778 -0.0639 0.0586
H -1.8024 1.1456 0.5212
H -2.4856 3.0354 1.9397
H -0.8201 4.2691 3.2910
H 1.5604 3.6118 3.2183
H 2.2888 1.7614 1.7845
H 2.6739 0.3642 -2.3055
H 2.0961 0.6772 -4.6962
H -0.2764 0.7757 -5.4096
H -2.0819 0.5200 -3.7368
H -1.5346 0.1853 -1.3783
H -1.5462 -1.2531 0.5598
H -2.2710 -3.3126 1.6827
H -0.6038 -4.8336 2.6929
H 1.8107 -4.2927 2.5637
H 2.5845 -2.1750 1.4081
