55
 
P 0.9385 -0.0192 -0.0765
C 0.3765 -1.0379 -1.5758
C 1.1434 -1.0690 -2.7976
C 2.4074 -0.3015 -3.0171
C 0.7517 -1.8730 -3.8944
C -0.3639 -2.6869 -3.8197
C -1.1076 -2.7086 -2.6465
C -0.7469 -1.9046 -1.5424
C 0.5132 -0.7822 1.5820
C 1.4053 -1.0686 2.6884
C 2.8559 -0.6813 2.7839
C 0.9110 -1.7448 3.8333
C -0.4299 -2.0908 3.9419
C -1.3125 -1.7197 2.9394
C -0.8499 -1.0683 1.7914
C 0.4549 1.6842 -0.5509
C 0.5945 2.7743 0.3869
C 1.2761 2.6990 1.7363
C 0.0383 4.0292 0.0820
C -0.6146 4.2418 -1.1243
C -0.7225 3.2060 -2.0467
C -0.2081 1.9406 -1.7605
Ni 3.3985 -0.0192 -0.0765
N 5.4985 -0.0192 -0.0765
C 6.1653 -0.5220 1.0008
F 5.4927 -1.0184 2.0522
C 7.5563 -0.5385 1.0354
C 8.2682 -0.0362 -0.0491
F 9.6233 -0.0481 -0.0291
C 7.5786 0.4747 -1.1521
C 6.1768 0.4752 -1.1475
F 5.4926 0.9653 -2.2089
H 2.7779 0.1992 -2.1124
H 2.2101 0.4451 -3.8130
H 3.1983 -0.9999 -3.3784
H 1.3319 -1.8923 -4.8157
H -0.6356 -3.3105 -4.6705
H -1.9671 -3.3665 -2.6000
H -1.3611 -1.9930 -0.6733
H 3.1806 -0.0020 2.0046
H 3.4520 -1.6073 2.8978
H 3.0584 -0.0811 3.7086
H 1.5640 -2.0050 4.6641
H -0.7919 -2.6226 4.8172
H -2.3643 -1.9505 3.0477
H -1.5795 -0.7940 1.0508
H 1.7781 1.7420 1.9192
H 0.5499 2.8876 2.5596
H 2.0547 3.4934 1.8001
H 0.1034 4.8513 0.7904
H -1.0415 5.2130 -1.3408
H -1.2320 3.3758 -2.9831
H -0.3604 1.1687 -2.4907
H 8.0710 -0.9410 1.8995
H 8.1265 0.8646 -1.9991
