63
 
P 1.0751 -0.0188 0.0633
C 0.3139 -1.6407 -0.1914
C 1.2145 -2.6978 -0.4622
C 0.7528 -3.9506 -0.9015
C 1.7074 -5.0629 -1.2603
C -0.6231 -4.1474 -1.0532
C -1.5228 -3.1179 -0.7460
C -1.0607 -1.8640 -0.3117
C 0.6938 0.3226 1.7995
C -0.1228 1.4450 2.0985
C -0.3379 1.8493 3.4320
C -1.1700 3.0609 3.7808
C 0.2648 1.1215 4.4626
C 1.0495 -0.0003 4.1713
C 1.2625 -0.4031 2.8448
C 0.6095 1.0700 -1.3239
C 1.0209 2.4171 -1.3289
C 0.6262 3.2922 -2.3609
C 1.0460 4.7360 -2.3685
C -0.1921 2.8150 -3.3913
C -0.6009 1.4819 -3.3998
C -0.2022 0.6136 -2.3784
Ni 3.5351 -0.0188 0.0633
N 5.6351 -0.0188 0.0633
C 6.3380 0.9513 -0.6224
N 5.6525 2.0550 -1.2752
C 4.2060 2.2209 -1.1937
C 6.3461 3.1155 -2.0159
C 7.7505 0.8323 -0.6581
C 8.3844 -0.2311 -0.0254
C 7.6380 -1.1729 0.6679
C 6.2521 -1.0427 0.7120
H 2.2848 -2.5290 -0.3866
H 2.7660 -4.7878 -1.0643
H 1.6118 -5.3025 -2.3423
H 1.4713 -5.9790 -0.6780
H -0.9943 -5.0973 -1.4219
H -2.5811 -3.2872 -0.8846
H -1.7632 -1.0630 -0.1368
H -0.5688 2.0254 1.2971
H -1.6209 3.5381 2.8850
H -0.5342 3.8178 4.2910
H -1.9918 2.7790 4.4750
H 0.1302 1.4310 5.4933
H 1.5139 -0.5437 4.9808
H 1.9004 -1.2478 2.6319
H 1.6286 2.7951 -0.5203
H 1.7369 4.9695 -1.5316
H 0.1459 5.3798 -2.2718
H 1.5582 4.9846 -3.3236
H -0.5148 3.4772 -4.1872
H -1.2384 1.1229 -4.1976
H -0.5497 -0.4053 -2.4204
H 3.7560 1.9165 -0.2580
H 3.7253 2.0543 -2.1816
H 4.0228 3.3042 -0.9879
H 7.4405 3.0415 -2.0579
H 6.1365 4.1011 -1.5450
H 5.9888 3.1447 -3.0665
H 8.4043 1.5185 -1.1614
H 9.4625 -0.3196 -0.0774
H 8.1325 -2.0036 1.1530
H 5.6578 -1.7822 1.2313
