69
 
P 0.9668 0.0730 -0.0598
C 0.1469 1.5056 0.7069
C -1.2296 1.7059 0.6155
C -1.8221 2.8477 1.1628
C -1.0453 3.8166 1.8028
F -1.6355 4.9191 2.3305
C 0.3386 3.6550 1.8806
C 0.9387 2.5098 1.3291
C 0.4028 0.1067 -1.7892
C 0.8024 1.0696 -2.7385
C 0.2334 1.0629 -4.0282
C -0.7301 0.1077 -4.3725
F -1.3112 0.1274 -5.5996
C -1.1011 -0.8657 -3.4469
C -0.5322 -0.8706 -2.1714
C 0.5221 -1.2070 1.1320
C -0.8296 -1.5076 1.4047
C -1.1690 -2.5812 2.2304
C -0.1663 -3.3826 2.7751
F -0.4966 -4.4327 3.5669
C 1.1755 -3.1147 2.4829
C 1.5196 -2.0301 1.6649
Ni 3.4268 0.0730 -0.0598
P 5.8868 0.0730 -0.0598
C 6.5768 1.6371 -0.6503
C 5.6180 2.6397 -0.9131
C 5.9931 3.8864 -1.4146
C 7.3372 4.1536 -1.6594
C 8.3057 3.1835 -1.3670
C 7.9329 1.9260 -0.8523
C 6.3023 -0.1295 1.6921
C 7.1019 -1.2259 2.0895
C 7.3503 -1.4742 3.4473
C 6.7990 -0.6378 4.4183
C 6.0240 0.4607 4.0315
C 5.7810 0.7200 2.6733
C 6.1989 -1.0587 -1.4547
C 7.5083 -1.4525 -1.8089
C 7.7007 -2.4439 -2.7831
C 6.6016 -3.0471 -3.3907
C 5.3146 -2.6512 -3.0156
O 4.3472 -3.1929 -3.5218
N 5.1388 -1.6694 -2.0618
H -1.8431 0.9950 0.0941
H -2.8895 2.9831 1.0774
H 0.9383 4.4238 2.3615
H 2.0205 2.4273 1.3889
H 1.5346 1.8273 -2.4950
H 0.5207 1.8061 -4.7625
H -1.8440 -1.6095 -3.7095
H -0.8515 -1.6265 -1.4680
H -1.6368 -0.9485 0.9652
H -2.2116 -2.8029 2.4298
H 1.9488 -3.7593 2.8768
H 2.5578 -1.8570 1.4140
H 4.5634 2.4569 -0.7331
H 5.2401 4.6402 -1.6218
H 7.6235 5.1150 -2.0709
H 9.3463 3.4121 -1.5499
H 8.6934 1.1947 -0.6306
H 7.5236 -1.9051 1.3575
H 7.9532 -2.3239 3.7529
H 6.9675 -0.8443 5.4699
H 5.5962 1.1015 4.7899
H 5.1611 1.5574 2.3914
H 8.3779 -1.0358 -1.3204
H 8.7000 -2.7681 -3.0566
H 6.7505 -3.8263 -4.1343
H 4.1678 -1.4078 -1.7672
