109
 
P 1.0617 -0.0488 0.0617
C 0.1438 1.6946 -0.4558
C -1.4013 1.6836 -0.4268
C 0.4906 2.9971 0.3808
C 0.5704 2.1601 -1.8888
C 0.4499 -1.4011 -1.3721
C 0.9214 -0.9547 -2.7626
C 0.8774 -2.9375 -1.3181
C -1.1049 -1.6485 -1.4493
C 0.5740 -0.4827 1.8324
C 1.1244 -1.8203 2.5289
C 2.6389 -1.7880 2.5989
C 0.5834 -1.9224 3.9641
C 0.7777 -3.1376 1.8628
Ni 3.5217 -0.0488 0.0617
C 5.6717 -0.0488 0.0617
N 6.3980 1.1210 0.2131
C 6.0500 2.5634 0.1907
C 4.7867 3.0584 0.6706
C 3.7379 2.2480 1.4684
C 4.2173 1.0463 2.2161
C 3.3697 3.1630 2.7057
C 4.5139 4.4609 0.5569
C 5.4507 5.3788 0.1608
C 6.6802 4.9479 -0.2583
C 6.9886 3.5666 -0.3302
C 8.2579 3.2327 -1.1312
C 8.0042 3.7292 -2.5635
C 9.6082 3.7978 -0.6303
C 7.6282 0.7002 0.5550
C 7.6817 -0.6729 0.5898
N 6.4685 -1.2114 0.2876
C 6.1929 -2.7261 0.2485
C 6.7293 -3.7225 1.1980
C 7.7220 -3.4435 2.3346
C 7.2311 -3.8866 3.7130
C 9.0536 -4.1728 2.0437
C 6.3995 -5.1140 1.0581
C 5.6196 -5.6031 0.0336
C 5.2168 -4.7458 -0.9417
C 5.5205 -3.3713 -0.8824
C 5.3766 -2.7487 -2.2379
C 3.9664 -2.2975 -2.5021
C 6.4993 -1.7746 -2.5103
H -1.7806 1.5083 0.5952
H -1.8428 1.0035 -1.1487
H -1.8161 2.6686 -0.7639
H 0.3110 2.9252 1.4663
H -0.1740 3.8498 0.0543
H 1.4737 3.4671 0.1519
H -0.0621 1.7552 -2.6848
H 1.6607 2.0083 -2.0601
H 0.3736 3.2411 -2.0878
H 1.9923 -0.7370 -2.7549
H 0.4236 -0.0776 -3.1236
H 0.6807 -1.6966 -3.5566
H 1.9282 -3.2055 -1.3342
H 0.4836 -3.5189 -2.1910
H 0.3396 -3.5525 -0.5813
H -1.7219 -0.8482 -1.8512
H -1.5002 -2.0451 -0.4870
H -1.3700 -2.4506 -2.1910
H -0.5390 -0.5357 1.8585
H 0.8769 0.3712 2.4682
H 2.8635 -0.9542 3.2293
H 3.0771 -1.7318 1.5758
H 3.0811 -2.6584 3.1208
H 0.8294 -0.9935 4.5102
H 1.0634 -2.7780 4.4989
H -0.5150 -2.0883 3.9763
H 1.4130 -3.1562 0.9911
H -0.3163 -3.2694 1.7017
H 1.1548 -4.0174 2.4335
H 2.8853 1.9447 0.8672
H 5.1805 1.2508 2.7134
H 4.2836 0.0753 1.8198
H 3.5003 0.8542 3.0070
H 4.3226 3.3781 3.2593
H 2.6547 2.6970 3.4092
H 2.8680 4.1163 2.5083
H 3.5812 4.9198 0.8358
H 5.2009 6.4390 0.1745
H 7.3667 5.7177 -0.5951
H 8.3826 2.1486 -1.2209
H 7.8388 4.8290 -2.5930
H 7.0863 3.2418 -2.9579
H 8.8583 3.5027 -3.2270
H 9.6942 4.8959 -0.7786
H 10.4282 3.3426 -1.2367
H 9.8098 3.5425 0.4294
H 8.4486 1.3585 0.8186
H 8.5957 -1.1915 0.8337
H 7.9343 -2.3758 2.4185
H 7.0331 -4.9786 3.7524
H 6.3174 -3.3262 3.9835
H 8.0265 -3.6726 4.4619
H 8.9227 -5.2791 2.0353
H 9.8214 -3.9591 2.8183
H 9.4444 -3.8409 1.0612
H 6.7744 -5.8748 1.7317
H 5.3992 -6.6653 -0.0681
H 4.7164 -5.1844 -1.8056
H 5.6163 -3.4880 -3.0520
H 3.5552 -1.8247 -1.5765
H 3.3806 -3.1883 -2.8422
H 3.9439 -1.5815 -3.3368
H 6.0474 -0.8916 -2.0816
H 7.3657 -1.5749 -1.8522
H 7.3556 -2.4752 -2.3130
