29
 
P 1.2065 -0.1807 -0.3390
Cl -0.5569 -1.1241 0.1604
Cl 0.6162 1.7364 0.2405
Cl 1.0402 -0.5436 -2.3958
Ni 3.5976 -0.0012 -0.1962
C 5.6511 0.1011 -0.0806
N 6.3538 -0.9630 -0.1820
C 5.7925 -2.2942 -0.2684
C 7.7630 -0.6618 -0.1541
C 7.7851 0.8640 -0.3416
N 6.4450 1.2628 0.0290
C 6.0182 2.5836 0.3856
C 6.9384 3.6572 0.4086
C 6.5401 4.9333 0.8239
C 5.2196 5.1638 1.2064
C 4.2930 4.1200 1.1717
C 4.6862 2.8354 0.7738
H 4.6653 -2.2408 -0.2714
H 6.1552 -2.9106 0.5889
H 6.1431 -2.7841 -1.2030
H 8.3407 -1.1680 -0.9580
H 8.1574 -0.9514 0.8452
H 7.8780 1.0910 -1.4289
H 8.6134 1.3363 0.2211
H 7.9713 3.5192 0.1200
H 7.2558 5.7466 0.8551
H 4.9155 6.1516 1.5321
H 3.2687 4.3067 1.4653
H 3.9507 2.0504 0.7906
