40
 
P 1.0908 -0.0413 -0.0064
C 0.3399 0.6130 -1.5642
C -1.1785 0.6160 -1.6551
C 0.9065 2.0196 -1.8220
C 0.5434 -1.7850 0.1683
C 1.0332 -2.7017 -0.9461
C 0.9840 -2.3205 1.5371
C 0.6266 1.1863 1.2549
Ni 3.5508 -0.0413 -0.0064
N 5.6508 -0.0413 -0.0064
C 6.3158 -0.6240 -1.0360
N 7.6681 -0.7306 -0.9976
C 8.3827 -0.2554 0.0603
O 9.7273 -0.4060 0.1120
C 10.4481 -1.1153 -0.8266
C 7.7139 0.3715 1.1153
C 6.3225 0.4634 1.0605
H 0.7231 -0.0221 -2.3927
H -1.6279 1.2147 -0.8410
H -1.5649 -0.4222 -1.6446
H -1.4709 1.0691 -2.6312
H 0.5451 2.7467 -1.0679
H 0.6024 2.3894 -2.8236
H 2.0203 1.9994 -1.7939
H -0.5680 -1.7764 0.1526
H 2.1360 -2.8194 -0.9056
H 0.7286 -2.3118 -1.9363
H 0.5602 -3.7018 -0.8195
H 2.0923 -2.3212 1.6227
H 0.6095 -3.3556 1.6903
H 0.5656 -1.6912 2.3532
H -0.4834 1.2273 1.3095
H 1.0353 2.1908 1.0504
H 0.9949 0.8361 2.2412
H 5.7663 -1.0313 -1.8731
H 11.5240 -1.0956 -0.5586
H 10.3174 -0.6630 -1.8323
H 10.1087 -2.1745 -0.8483
H 8.2550 0.7548 1.9715
H 5.7732 0.9130 1.8771
