71
 
P 0.9166 -0.0552 0.0002
C 0.4753 -1.6988 0.9795
C -0.7872 -2.0232 1.6224
C -1.9591 -1.0926 1.6714
C -1.0043 -3.2689 2.2797
C -0.0003 -4.2292 2.3810
C -0.1365 -5.5449 3.1091
C 1.2177 -3.9532 1.8247
C 1.4830 -2.7347 1.1603
C 2.8947 -2.6153 0.7027
C 0.5768 1.4816 1.1704
C 1.2915 1.8245 2.3907
C 2.4160 1.0841 2.9849
C 0.9381 2.9127 3.2119
C -0.1731 3.6725 2.9899
C -0.5010 4.7316 4.0365
C -0.9311 3.3903 1.8435
C -0.5475 2.3534 0.9209
C -1.3850 2.1892 -0.3124
C 0.2844 -0.0056 -1.8439
C -0.8630 -0.7923 -2.2995
C -1.7435 -1.6311 -1.4825
C -1.3363 -0.7813 -3.6048
C -0.7665 0.0056 -4.5564
C -1.3050 -0.0315 -5.9483
C 0.2823 0.8344 -4.2017
C 0.8153 0.8688 -2.8837
C 1.9316 1.8718 -2.7311
Ni 3.3766 -0.0552 0.0002
O 5.4266 -0.0552 0.0002
C 6.1837 0.9607 -0.3313
C 7.5044 0.5761 -0.1983
C 7.4856 -0.7377 0.2314
C 6.1570 -1.0873 0.3418
H -1.6989 -0.1287 1.2240
H -2.2683 -0.9217 2.7126
H -2.8129 -1.5470 1.1136
H -1.9657 -3.4832 2.7327
H -1.1134 -5.6605 3.6169
H 0.6683 -5.6121 3.8793
H 0.0221 -6.3889 2.4002
H 1.9800 -4.7239 1.9454
H 3.4811 -3.5418 0.9635
H 3.3536 -1.8530 1.3482
H 2.8489 -2.6152 -0.3966
H 2.2309 0.0182 2.8188
H 2.3254 1.1171 4.1025
H 3.3584 1.6511 2.8056
H 1.5209 3.1463 4.1025
H 0.2810 4.7904 4.8366
H -1.4358 4.4734 4.5783
H -0.5578 5.7454 3.5982
H -1.8169 3.9914 1.6657
H -2.3551 2.7185 -0.2321
H -1.6280 1.1366 -0.5018
H -0.8167 2.5843 -1.1798
H -1.4270 -1.4113 -0.5430
H -1.6563 -2.7079 -1.7200
H -2.8125 -1.3021 -1.5525
H -2.1976 -1.3893 -3.8818
H -2.1516 -0.7501 -6.0410
H -0.4957 -0.3641 -6.6275
H -1.6698 0.9767 -6.2246
H 0.6852 1.4621 -4.9875
H 1.8760 2.6273 -3.5566
H 2.9112 1.3895 -2.9167
H 1.8394 2.4900 -1.8196
H 5.8200 1.9284 -0.6487
H 8.3812 1.1796 -0.3901
H 8.3401 -1.3674 0.4409
H 5.7664 -2.0455 0.6554
