90
 
P 1.0268 0.0831 0.0487
C 0.2234 -0.8991 -1.2309
C -1.1572 -1.0487 -1.3701
C -1.6661 -1.8874 -2.3727
C -0.8011 -2.5735 -3.2371
Cl -1.4436 -3.6926 -4.4261
C 0.5774 -2.3792 -3.1398
C 1.0862 -1.5393 -2.1476
C 0.5950 -1.0395 1.4007
C 0.9624 -2.3875 1.4530
C 0.5311 -3.1871 2.5258
C -0.2525 -2.6433 3.5537
Cl -0.8159 -3.6523 4.8758
C -0.5950 -1.2926 3.5228
C -0.1767 -0.4982 2.4541
C 0.4214 1.7876 0.0074
C -0.4562 2.2513 -0.9900
C -0.9652 3.5553 -0.9328
C -0.6065 4.4055 0.1175
Cl -1.2448 6.0395 0.1843
C 0.2565 3.9482 1.1173
C 0.7680 2.6469 1.0618
Ni 3.4868 0.0831 0.0487
P 5.9468 0.0831 0.0487
C 6.6105 1.8031 -0.5867
C 6.0690 2.3987 -1.9666
C 4.6000 2.8320 -1.9904
C 4.3149 3.8281 -0.8759
C 4.7525 3.1894 0.4294
C 6.2967 2.9580 0.3396
C 6.5392 0.0281 1.9291
C 6.0649 1.1163 2.9370
C 4.5453 1.0893 3.0857
C 4.0925 -0.2232 3.7006
C 4.6413 -1.3798 2.8799
C 6.1806 -1.2533 2.7399
C 6.4077 -1.3269 -1.1232
C 7.1582 -1.1573 -2.3628
C 7.7380 0.0797 -2.9830
C 7.4578 -2.2555 -3.1693
C 7.1371 -3.5340 -2.8018
C 7.5674 -4.6785 -3.6446
C 6.4390 -3.7502 -1.6396
C 6.0414 -2.6898 -0.8230
C 5.2564 -3.1314 0.3525
H -1.8299 -0.5270 -0.7069
H -2.7336 -2.0193 -2.4672
H 1.2543 -2.8910 -3.8175
H 2.1633 -1.4086 -2.0840
H 1.5599 -2.8183 0.6643
H 0.7964 -4.2337 2.5572
H -1.1936 -0.8600 4.3192
H -0.4703 0.5448 2.4563
H -0.7684 1.6141 -1.8038
H -1.6468 3.9024 -1.6997
H 0.5225 4.5971 1.9427
H 1.4169 2.3009 1.8565
H 7.7118 1.7464 -0.6050
H 6.1337 1.7947 -2.8449
H 6.6766 3.3097 -2.1966
H 3.9653 1.9289 -1.8712
H 4.3678 3.3115 -2.9693
H 3.2329 4.0770 -0.8626
H 4.8845 4.7735 -1.0338
H 4.1316 2.2539 0.4770
H 4.5166 3.8758 1.2684
H 6.9344 2.7845 1.1715
H 6.7687 3.9125 0.0161
H 7.6536 0.0513 1.8911
H 6.4086 2.1194 2.8286
H 6.5419 0.9403 3.9271
H 4.0656 1.1420 2.1087
H 4.2113 1.9471 3.6967
H 2.9811 -0.2593 3.7012
H 4.4678 -0.2943 4.7402
H 4.1429 -1.2680 1.9118
H 4.3472 -2.3445 3.3432
H 6.7551 -2.1056 2.3905
H 6.5947 -1.2212 3.7771
H 8.1880 0.7747 -2.2849
H 7.1301 0.3973 -3.8596
H 8.6920 -0.1438 -3.4949
H 7.9961 -2.1159 -4.1007
H 8.0822 -4.3260 -4.5634
H 6.6788 -5.2739 -3.9272
H 8.2803 -5.2902 -3.0540
H 6.2052 -4.7719 -1.3644
H 4.8933 -4.1742 0.2944
H 4.3339 -2.5327 0.4058
H 5.9622 -3.3332 1.1519
