55
 
P 1.0703 -0.0297 0.0646
C 0.4500 -1.6609 -0.4969
C -0.9032 -2.0057 -0.6292
C -1.2699 -3.3053 -1.0399
C -0.2924 -4.2766 -1.3266
C -0.6632 -5.6972 -1.6722
C 1.0561 -3.9210 -1.2525
C 1.4234 -2.6314 -0.8434
C 0.4498 -0.2106 1.7746
C 0.8572 -1.1876 2.6969
C 0.2471 -1.2560 3.9682
C -0.7757 -0.3591 4.3300
C -1.5034 -0.4838 5.6439
C -1.1420 0.6472 3.4341
C -0.5331 0.7222 2.1785
C 0.6655 1.4234 -0.9433
C -0.6749 1.7446 -1.2579
C -0.9793 2.8534 -2.0578
C 0.0431 3.6801 -2.5379
C -0.2919 4.8178 -3.4774
C 1.3788 3.4081 -2.1607
C 1.6980 2.2698 -1.3727
Ni 3.5303 -0.0297 0.0646
N 5.6303 -0.0297 0.0646
C 6.2702 0.9911 -0.5650
C 7.6615 0.9821 -0.6824
C 8.3838 -0.0868 -0.1459
Cl 10.1286 -0.1420 -0.3192
C 7.7079 -1.1187 0.5132
C 6.3133 -1.0702 0.6115
H -1.6719 -1.2839 -0.4054
H -2.3178 -3.5633 -1.1179
H -1.7618 -5.8565 -1.6435
H -0.2081 -6.3723 -0.9132
H -0.2823 -5.9939 -2.6729
H 1.8207 -4.6558 -1.4922
H 2.4828 -2.4057 -0.7854
H 1.6291 -1.8975 2.4414
H 0.5543 -2.0210 4.6685
H -1.1450 -1.3578 6.2269
H -2.5870 -0.6403 5.4414
H -1.3907 0.4317 6.2621
H -1.9183 1.3601 3.6980
H -0.8642 1.5059 1.5103
H -1.4974 1.1365 -0.9042
H -2.0148 3.0654 -2.3128
H -1.3676 4.8111 -3.7704
H 0.2900 4.6900 -4.4160
H -0.0576 5.8092 -3.0387
H 2.1643 4.0677 -2.5073
H 2.7396 2.0060 -1.0768
H 5.6922 1.7965 -0.9991
H 8.1681 1.7863 -1.2011
H 8.2544 -1.9565 0.9270
H 5.7725 -1.8732 1.0943
