72
 
P 0.9221 0.0601 -0.0181
C 0.2192 0.6968 -1.5605
C -1.1436 0.7854 -1.8627
C -1.5480 1.2444 -3.1285
C -0.6005 1.6231 -4.0888
F -0.9965 2.0172 -5.3254
C 0.7562 1.5909 -3.7745
C 1.1627 1.1390 -2.5174
C 0.5156 -1.6722 -0.2889
C 0.8870 -2.3899 -1.4253
C 0.5316 -3.7428 -1.5393
C -0.1836 -4.3826 -0.5174
F -0.5210 -5.6912 -0.6335
C -0.5459 -3.6736 0.6267
C -0.2010 -2.3256 0.7398
C 0.4124 0.9577 1.4562
C -0.9590 1.0622 1.7544
C -1.3912 1.7335 2.8998
C -0.4562 2.2979 3.7675
F -0.8817 2.9644 4.8711
C 0.9154 2.1654 3.5004
C 1.3568 1.4901 2.3443
Ni 3.3821 0.0601 -0.0181
P 5.8421 0.0601 -0.0181
C 6.4810 -0.8505 1.3998
C 5.6358 -1.8769 1.8843
C 5.9851 -2.6247 3.0108
C 7.1814 -2.3530 3.6704
C 8.0277 -1.3425 3.1948
C 7.6827 -0.5913 2.0598
C 6.3484 -0.7354 -1.5577
C 5.3974 -1.1454 -2.5034
C 5.8255 -1.6841 -3.7333
C 7.1922 -1.8077 -4.0200
C 8.1393 -1.3807 -3.0878
C 7.7208 -0.8420 -1.8639
C 6.3546 1.7988 0.3367
C 5.9560 2.6793 -0.8612
C 4.5950 2.9120 -1.1149
C 4.1813 3.6694 -2.2194
C 5.1202 4.2113 -3.0983
C 6.4812 4.0106 -2.8657
C 6.9054 3.2548 -1.7549
H -1.8885 0.4945 -1.1427
H -2.5989 1.2926 -3.3744
H 1.4938 1.9000 -4.5091
H 2.2271 1.1181 -2.3035
H 1.4429 -1.9043 -2.2125
H 0.8139 -4.2990 -2.4202
H -1.0904 -4.1675 1.4262
H -0.4899 -1.8003 1.6442
H -1.7015 0.6172 1.1082
H -2.4519 1.8136 3.1135
H 1.6289 2.5879 4.1952
H 2.4234 1.3648 2.1334
H 4.6922 -2.1023 1.3942
H 5.3264 -3.4072 3.3767
H 7.4493 -2.9243 4.5510
H 8.9511 -1.1366 3.7143
H 8.3405 0.1879 1.7161
H 4.3334 -1.0221 -2.2854
H 5.1041 -1.9989 -4.4757
H 7.5193 -2.2229 -4.9685
H 9.1968 -1.4581 -3.3210
H 8.4715 -0.4903 -1.1665
H 7.4669 1.8050 0.3836
H 5.9514 2.1844 1.2904
H 3.8516 2.4975 -0.4510
H 3.1268 3.8311 -2.3984
H 4.7918 4.7860 -3.9594
H 7.2014 4.4391 -3.5574
H 7.9721 3.1178 -1.6247
