79
 
P 1.0833 0.0356 -0.0424
C 0.2571 1.6023 0.4054
C 0.9830 2.7282 0.9529
C 2.4394 2.7317 1.3800
C 0.3089 3.9447 1.1636
C -1.0487 4.0576 0.8906
C -1.7588 2.9537 0.4247
C -1.1133 1.7409 0.1870
C 0.5189 0.1079 -1.8432
C 1.2411 0.6889 -2.9154
C 2.5395 1.2671 -2.7388
C 0.7735 0.6956 -4.2313
C -0.4256 0.0989 -4.5453
C -1.1621 -0.5194 -3.5386
C -0.6982 -0.5218 -2.2057
C 0.7408 -1.3292 1.1405
C 0.6830 -2.6965 0.7145
C 1.1234 -3.1827 -0.6424
C 0.1697 -3.6774 1.5855
C -0.2389 -3.3429 2.8716
C -0.0614 -2.0413 3.3350
C 0.4280 -1.0413 2.4810
Ni 3.5433 0.0356 -0.0424
P 6.0033 0.0356 -0.0424
N 6.9205 1.3405 0.7600
C 6.4601 1.4647 2.1455
C 8.3745 1.5568 0.6842
C 8.9541 1.2696 -0.6546
N 9.1780 -0.1725 -1.0200
C 8.7015 -1.4810 -0.4408
C 8.0357 -1.5304 0.9436
N 6.5562 -1.2756 0.9970
C 5.7658 -2.4489 0.6058
N 6.5656 0.5482 -1.7536
C 5.6754 1.4257 -2.4735
C 7.4427 -0.2430 -2.7169
C 8.9752 -0.2323 -2.4466
H 2.9252 1.7450 1.3152
H 2.4995 3.0432 2.4527
H 3.0279 3.4805 0.8056
H 0.8361 4.8134 1.5519
H -1.5537 5.0006 1.0563
H -2.8163 3.0384 0.2317
H -1.6831 0.9111 -0.1896
H 2.8257 0.9522 -1.7622
H 2.5245 2.3674 -2.8215
H 3.2140 0.8128 -3.5050
H 1.3691 1.1454 -5.0219
H -0.7579 0.1092 -5.5758
H -2.0920 -0.9998 -3.8061
H -1.2976 -1.0274 -1.4622
H 1.4679 -2.3741 -1.3069
H 0.3019 -3.7439 -1.1321
H 1.9868 -3.8784 -0.5159
H 0.0549 -4.7063 1.2556
H -0.6817 -4.0988 3.5125
H -0.3412 -1.8031 4.3525
H 0.5329 -0.0377 2.8657
H 5.3514 1.4071 2.2013
H 6.7650 2.4445 2.5674
H 6.8930 0.6486 2.7630
H 8.9688 1.1015 1.4905
H 8.5033 2.6580 0.8119
H 9.9082 1.8158 -0.8030
H 8.3413 1.8616 -1.3762
H 9.6007 -2.1376 -0.4433
H 8.0387 -2.0664 -1.1079
H 8.6092 -0.9341 1.6651
H 8.2076 -2.5696 1.3062
H 6.0481 -3.3370 1.2079
H 5.8898 -2.6908 -0.4746
H 4.6866 -2.2335 0.7988
H 4.7436 1.1882 -2.0708
H 5.6443 1.2394 -3.5791
H 5.9001 2.4877 -2.2846
H 7.0616 -1.2720 -2.8151
H 7.4520 0.1902 -3.7441
H 9.5131 0.6290 -2.9258
H 9.4829 -1.1143 -2.9041
