96
 
P 1.0153 0.0638 0.0755
C 0.1721 -0.7839 -1.3944
C -1.2448 -0.9318 -1.5652
C -2.2631 -0.3587 -0.6787
C -1.8029 -1.5041 -2.7032
C -1.0345 -1.9373 -3.7543
C -1.7542 -2.5102 -4.9500
C 0.3567 -1.7879 -3.6783
C 0.9801 -1.2154 -2.5231
C 2.4902 -0.9978 -2.5924
C 0.6476 -1.0367 1.5867
C 1.5054 -2.1337 1.9626
C 2.8323 -2.4139 1.4247
C 1.1783 -3.0442 2.9558
C 0.0340 -2.9102 3.6883
C -0.2843 -3.9384 4.7254
C -0.7629 -1.7917 3.4877
C -0.4766 -0.8324 2.4850
C -1.3867 0.3837 2.5361
C 0.4900 1.8193 0.1508
C -0.3722 2.4498 -0.8330
C -0.7904 1.9616 -2.2123
C -0.9220 3.6958 -0.5588
C -0.5914 4.4001 0.5828
C -1.2233 5.7394 0.8065
C 0.3437 3.8679 1.4795
C 0.8932 2.5801 1.2828
C 1.8899 2.0291 2.2993
Ni 3.4753 0.0638 0.0755
P 5.9353 0.0638 0.0755
C 6.8086 0.5960 -1.4213
C 7.5268 1.8060 -1.4380
C 8.0270 2.3207 -2.6394
C 7.8307 1.6293 -3.8355
C 7.1218 0.4257 -3.8347
C 6.5982 -0.0822 -2.6375
C 6.4523 1.0550 1.4948
C 7.2300 0.4329 2.4975
C 7.6204 1.1358 3.6385
C 7.2453 2.4692 3.7902
C 6.5000 3.1032 2.7886
C 6.1033 2.3992 1.6419
C 6.4855 -1.6992 0.0530
C 5.5721 -2.7465 0.0297
C 5.9562 -4.0540 0.3330
C 7.2911 -4.3375 0.5848
C 8.2236 -3.2993 0.5101
O 9.4030 -3.5360 0.7051
N 7.8048 -2.0058 0.2600
H -1.7723 0.4416 -0.1638
H -2.7886 -1.1445 -0.1096
H -3.0174 0.1989 -1.2826
H -2.8829 -1.5617 -2.7936
H -2.8600 -2.5257 -4.7909
H -1.4386 -3.5588 -5.1051
H -1.5742 -1.8999 -5.8590
H 0.9402 -2.0882 -4.5456
H 2.9061 -1.4249 -3.5410
H 3.0400 -1.4222 -1.7307
H 2.7207 0.0858 -2.6336
H 3.0183 -1.6908 0.6880
H 2.8939 -3.4336 0.9992
H 3.6113 -2.3115 2.2285
H 1.8442 -3.8793 3.1664
H 0.4617 -4.7662 4.7193
H -1.2800 -4.3831 4.5218
H -0.2616 -3.4559 5.7197
H -1.6218 -1.6736 4.1345
H -2.0870 0.3374 3.3923
H -2.0715 0.5496 1.7277
H -0.8001 1.2970 2.7081
H -0.2520 1.1208 -2.6206
H -0.5235 2.7158 -2.9759
H -1.8899 1.8219 -2.2862
H -1.6206 4.1321 -1.2682
H -1.9633 5.9793 0.0082
H -0.4338 6.5144 0.7898
H -1.7598 5.7501 1.7772
H 0.6083 4.4515 2.3522
H 2.1454 2.8172 3.0481
H 2.8278 1.6085 1.7824
H 1.4378 1.2127 2.8959
H 7.6595 2.3922 -0.5427
H 8.5465 3.2711 -2.6468
H 8.2117 2.0377 -4.7642
H 6.9549 -0.0963 -4.7688
H 6.0026 -0.9859 -2.6695
H 7.5385 -0.6007 2.4160
H 8.2068 0.6438 4.4076
H 7.5348 3.0085 4.6836
H 6.2236 4.1406 2.9073
H 5.5234 2.8939 0.8772
H 4.5726 -2.5534 -0.1927
H 5.2138 -4.8436 0.3887
H 7.5908 -5.3529 0.8274
H 8.5142 -1.2401 0.2796
