90
 
P 1.0466 0.0593 -0.0656
C 0.2965 -1.7641 -0.0110
C -1.2389 -1.8606 -0.0213
C 0.7288 -2.7337 -1.1651
C 0.8305 -2.4916 1.2465
C 0.5684 0.9367 1.6866
C 1.2615 0.2521 2.8776
C 0.9408 2.4443 1.9652
C -0.9673 0.9990 1.9237
C 0.5711 0.8538 -1.7041
C 1.0916 2.3264 -2.0337
C 2.6237 2.3034 -1.9956
C 0.6224 2.7668 -3.4357
C 0.6050 3.4508 -1.1143
Ni 3.5066 0.0593 -0.0656
P 5.9666 0.0593 -0.0656
C 6.6803 1.4166 -1.2072
C 6.2109 2.8152 -0.7289
C 8.2024 1.4490 -1.4043
C 6.0606 1.2505 -2.6090
C 6.4703 0.3418 1.7448
C 5.9340 -0.8217 2.6008
C 8.0116 0.3470 1.9009
C 5.9161 1.6311 2.3764
C 6.4367 -1.5221 -0.8137
C 5.4770 -2.4466 -1.2122
C 5.8560 -3.7428 -1.5882
C 7.2167 -4.1656 -1.5660
N 7.6043 -5.5518 -1.7978
C 6.6417 -6.6093 -2.0900
C 8.9737 -6.0439 -1.6350
C 8.1728 -3.1769 -1.2369
C 7.7868 -1.8935 -0.8662
H -1.6572 -1.5295 -0.9878
H -1.7379 -1.3344 0.7660
H -1.5530 -2.9123 0.1801
H 0.4574 -2.3735 -2.1732
H 0.1711 -3.7061 -1.0493
H 1.7901 -3.0632 -1.1285
H 0.2607 -2.1986 2.1208
H 1.9369 -2.3550 1.3516
H 0.6345 -3.5854 1.2524
H 2.3511 0.1854 2.6832
H 0.8599 -0.6981 3.1746
H 1.0928 0.8076 3.8262
H 2.0264 2.6717 1.9654
H 0.6060 2.7452 2.9904
H 0.2934 3.1944 1.4763
H -1.4414 0.0456 2.0848
H -1.4775 1.5892 1.1238
H -1.2167 1.4844 2.8932
H -0.5382 0.8574 -1.7704
H 0.9562 0.1899 -2.5032
H 2.9479 1.5784 -2.7506
H 3.0118 1.9813 -1.0083
H 3.0370 3.3117 -2.2342
H 0.9363 2.0313 -4.1961
H 1.0700 3.7560 -3.7034
H -0.4832 2.8966 -3.4726
H 1.1887 3.3489 -0.2282
H -0.5039 3.4762 -0.9826
H 0.9190 4.4661 -1.4523
H 6.7700 3.1673 0.1428
H 5.1180 2.8320 -0.5260
H 6.4199 3.6035 -1.4840
H 8.7537 1.7176 -0.4978
H 8.4719 2.2289 -2.1488
H 8.5684 0.4963 -1.8150
H 4.9712 1.1845 -2.5329
H 6.4294 0.3519 -3.1364
H 6.2915 2.1354 -3.2512
H 6.3413 -1.8020 2.2768
H 4.8254 -0.8521 2.5719
H 6.2437 -0.6799 3.6646
H 8.4779 -0.5548 1.4645
H 8.3216 0.3700 2.9656
H 8.4617 1.2487 1.4642
H 4.8156 1.6841 2.2635
H 6.3794 2.5436 1.9980
H 6.1712 1.6630 3.4589
H 4.4261 -2.1929 -1.1789
H 5.0390 -4.3895 -1.8363
H 5.5977 -6.2913 -2.1843
H 6.6616 -7.3597 -1.2698
H 6.9078 -7.1079 -3.0442
H 9.7280 -5.2965 -1.3597
H 9.3218 -6.5220 -2.5740
H 8.9985 -6.8007 -0.8202
H 9.2327 -3.3528 -1.2012
H 8.5735 -1.2258 -0.5649
