60
 
P 1.0645 -0.0758 0.0092
C 0.2699 -1.6998 -0.0182
C -1.1103 -1.8775 0.0663
C -1.6450 -3.1691 0.1535
C -0.8069 -4.2912 0.1424
Cl -1.4831 -5.8980 0.3490
C 0.5710 -4.1274 -0.0100
C 1.1090 -2.8379 -0.0949
C 0.5068 0.2405 1.7073
C 0.9010 -0.4955 2.8349
C 0.3228 -0.2161 4.0882
C -0.6465 0.7886 4.2188
Cl -1.4224 1.0900 5.7656
C -1.0117 1.5463 3.1079
C -0.4329 1.2804 1.8666
C 0.6879 0.9418 -1.4290
C -0.6438 1.2572 -1.7883
C -0.9098 2.0604 -2.9039
C 0.1475 2.5593 -3.6669
Cl -0.2012 3.5365 -5.0900
C 1.4762 2.2770 -3.2939
C 1.7580 1.4679 -2.1651
Ni 3.5245 -0.0758 0.0092
P 5.9845 -0.0758 0.0092
C 6.8489 1.0161 1.2368
C 6.4135 2.4980 1.0561
C 6.4383 0.6048 2.6562
C 6.4952 -1.7910 0.4388
C 6.0105 -2.7438 -0.6839
C 8.0317 -1.8786 0.4684
C 6.4600 0.7092 -1.5601
H -1.7631 -1.0217 0.0988
H -2.7121 -3.2956 0.2563
H 1.2229 -4.9964 -0.0363
H 2.1862 -2.7380 -0.1946
H 1.6328 -1.2850 2.7469
H 0.6095 -0.7908 4.9584
H -1.7577 2.3292 3.1990
H -0.7519 1.8753 1.0200
H -1.4854 0.8950 -1.2129
H -1.9368 2.2941 -3.1788
H 2.2778 2.6910 -3.8899
H 2.7956 1.2269 -1.8228
H 7.9477 0.9626 1.1259
H 5.3055 2.6205 1.1045
H 6.7678 2.9269 0.0981
H 6.8445 3.1353 1.8603
H 5.3360 0.6964 2.7982
H 6.9366 1.2607 3.4020
H 6.7396 -0.4367 2.8654
H 6.0580 -2.1093 1.4032
H 6.5035 -2.5189 -1.6613
H 4.9144 -2.6772 -0.8393
H 6.2621 -3.7995 -0.4394
H 8.4689 -1.5334 -0.4985
H 8.3660 -2.9240 0.6352
H 8.4489 -1.2549 1.2793
H 6.0548 1.7270 -1.6875
H 6.0964 0.0604 -2.3854
H 7.5714 0.7189 -1.6191
