60
 
P 0.9661 -0.0529 -0.0778
C 0.1394 -0.3283 1.5694
C -1.2432 -0.2343 1.8342
C -1.7512 -0.4008 3.1332
C -0.9090 -0.7233 4.1937
C 0.4517 -0.8942 3.9581
C 0.9745 -0.6882 2.6662
C 0.5060 1.6925 -0.3183
C 1.4841 2.6628 -0.5702
C 1.1165 4.0015 -0.7815
C -0.2285 4.3829 -0.7511
C -1.2147 3.4176 -0.5773
C -0.8518 2.0836 -0.3889
C 0.5897 -1.4016 -1.2959
C 0.9744 -2.7560 -1.1241
C 1.8142 -3.2074 0.0163
C 0.6072 -3.7343 -2.0726
C -0.0837 -3.3863 -3.2280
C -0.4242 -2.0553 -3.4475
C -0.1046 -1.0737 -2.4901
Ni 3.4261 -0.0529 -0.0778
P 5.8861 -0.0529 -0.0778
C 6.7701 1.0672 1.0531
C 6.3739 -1.7376 0.3970
C 6.4277 0.4159 -1.7714
C 5.9170 1.8206 -2.1159
C 7.9724 0.3992 -1.8328
C 5.8781 -0.6016 -2.7810
H -1.9599 -0.0276 1.0758
H -2.8102 -0.2819 3.3204
H -1.3168 -0.8526 5.1927
H 1.0951 -1.1787 4.7867
H 2.0415 -0.8248 2.5357
H 2.5263 2.3823 -0.6279
H 1.8739 4.7481 -0.9705
H -0.5096 5.4197 -0.8882
H -2.2628 3.6998 -0.5965
H -1.6538 1.3807 -0.3175
H 2.2902 -2.3499 0.5226
H 2.6478 -3.8210 -0.3891
H 1.2020 -3.8173 0.7092
H 0.8872 -4.7730 -1.9324
H -0.3348 -4.1494 -3.9602
H -0.9400 -1.7931 -4.3655
H -0.3971 -0.0543 -2.7031
H 6.4033 0.8372 2.0795
H 6.4205 2.1044 0.8492
H 7.8669 1.0039 1.0322
H 6.0165 -1.9674 1.4199
H 7.4850 -1.7917 0.3905
H 5.9758 -2.4773 -0.3239
H 6.3133 2.5745 -1.4049
H 4.8076 1.8468 -2.0817
H 6.2502 2.1115 -3.1353
H 8.4159 1.1313 -1.1271
H 8.3346 0.6688 -2.8465
H 8.3724 -0.6067 -1.5798
H 4.7684 -0.6223 -2.7513
H 6.2573 -1.6220 -2.5574
H 6.2067 -0.3406 -3.8106
