49
 
P 1.0005 0.0676 -0.0737
C 0.2606 -0.6439 1.4637
C -1.1089 -0.6436 1.7838
C -1.5593 -1.1853 3.0057
C -0.6622 -1.7537 3.9143
C 0.6930 -1.8006 3.6022
C 1.1525 -1.2485 2.3934
C 0.4057 1.7463 0.1399
C 0.8320 2.5726 1.1694
C 0.2877 3.8570 1.2968
C -0.6823 4.3169 0.3951
C -1.0920 3.5050 -0.6612
C -0.5445 2.2273 -0.7960
C 0.5129 -0.9914 -1.4913
C 1.4529 -1.5543 -2.3928
C 2.9311 -1.3053 -2.2301
C 0.9902 -2.2916 -3.5160
C -0.3773 -2.4434 -3.7607
C -1.2995 -1.8650 -2.8946
C -0.8603 -1.1545 -1.7707
Ni 3.4605 0.0676 -0.0737
N 5.5605 0.0676 -0.0737
C 6.2083 0.9276 0.7565
C 7.6012 1.0324 0.7092
C 8.3158 0.2299 -0.1828
C 7.6335 -0.6637 -1.0109
C 6.2392 -0.7250 -0.9466
H -1.8319 -0.2164 1.1122
H -2.6104 -1.1643 3.2591
H -1.0178 -2.1616 4.8576
H 1.3824 -2.2623 4.3058
H 2.2162 -1.3055 2.1918
H 1.5789 2.2166 1.8612
H 0.6136 4.4941 2.1026
H -1.1137 5.3028 0.5119
H -1.8370 3.8630 -1.3673
H -0.8854 1.6177 -1.6271
H 3.1152 -0.2662 -1.9875
H 3.3809 -1.3484 -3.2482
H 3.4163 -2.0597 -1.6022
H 1.6814 -2.7356 -4.2255
H -0.7251 -2.9896 -4.6343
H -2.3597 -1.9556 -3.1044
H -1.6053 -0.6986 -1.1385
H 5.6368 1.5586 1.4243
H 8.1192 1.7381 1.3456
H 9.3941 0.3052 -0.2373
H 8.1773 -1.2895 -1.7067
H 5.6998 -1.3945 -1.5998
