41
 
P 1.0699 -0.0303 -0.0648
O 0.5991 -1.2386 -1.1806
C 0.9996 -0.9224 -2.4865
C 0.5446 -2.0635 -3.3936
O 0.6693 0.1917 1.5801
C -0.6868 -0.2255 1.7097
C -1.0714 -0.4806 3.1619
C 0.3156 1.5197 -0.6105
C -0.9191 1.6111 -1.2670
C -1.2865 2.8169 -1.8870
C -0.4323 3.9265 -1.8475
C 0.7803 3.8475 -1.1645
C 1.1531 2.6498 -0.5539
Ni 3.5299 -0.0303 -0.0648
N 5.6299 -0.0303 -0.0648
C 5.7165 1.1231 -0.9870
N 6.3814 -1.0218 -0.6413
C 7.5847 -0.9720 -0.1767
C 7.6682 -0.0468 0.8666
C 6.3921 0.4739 1.0078
H 2.1061 -0.8267 -2.5541
H 0.4947 -0.0034 -2.8495
H 1.0349 -3.0141 -3.0922
H 0.7989 -1.8449 -4.4512
H -0.5575 -2.1994 -3.3160
H -0.9275 -1.1719 1.1574
H -1.3380 0.5920 1.3439
H -0.5367 -1.3628 3.5737
H -2.1661 -0.6836 3.2197
H -0.8489 0.4158 3.7726
H -1.5639 0.7484 -1.3505
H -2.2161 2.8847 -2.4346
H -0.6985 4.8428 -2.3604
H 1.4497 4.7003 -1.1411
H 2.1243 2.5921 -0.0727
H 5.2500 0.8782 -1.9632
H 6.7799 1.3959 -1.2397
H 5.2366 2.0409 -0.5804
H 8.3990 -1.5768 -0.5529
H 8.5351 0.2116 1.4612
H 6.0653 1.2136 1.7295
