69
 
P 1.0901 0.0187 0.0391
C 0.0576 -1.5795 -0.0026
C 0.1220 -3.0056 0.7161
C -0.8912 -3.1457 1.9193
C -2.3004 -2.6824 1.5233
C -2.2875 -1.3072 0.8489
C -1.3885 -1.3187 -0.3879
C 0.5420 0.8489 1.7044
C 0.8813 0.0731 3.0069
C 2.3894 -0.0704 3.1522
C 3.0046 1.3333 3.2213
C 2.5802 2.2464 2.0519
C 1.0693 2.2717 1.9309
C 0.6730 0.9652 -1.5449
C 1.0332 0.6103 -2.8860
C 1.8148 -0.6052 -3.2445
C 0.6518 1.4335 -3.9790
C -0.0726 2.6036 -3.7878
C -0.4437 2.9658 -2.5049
C -0.0876 2.1613 -1.4112
Ni 3.5501 0.0187 0.0391
N 5.6501 0.0187 0.0391
C 6.2814 -0.5304 -1.0221
C 7.6641 -0.6864 -1.0157
C 8.4327 -0.2818 0.1076
N 9.8637 -0.5332 0.1881
C 10.6190 -1.2086 -0.8639
C 10.6652 -0.2144 1.3663
C 7.7190 0.3382 1.1684
C 6.3343 0.4709 1.1116
H 0.2710 -1.3271 1.0070
H 1.1475 -3.3065 1.0505
H -0.1946 -3.7793 -0.0152
H -0.5935 -2.5495 2.7822
H -0.9232 -4.1767 2.3271
H -2.9460 -2.6236 2.4280
H -2.7332 -3.4148 0.8163
H -1.9440 -0.5561 1.5755
H -3.3103 -1.0283 0.5367
H -1.4771 -0.3768 -0.9533
H -1.7130 -2.1347 -1.0739
H -0.5537 0.9714 1.6602
H 0.4366 -0.9023 3.0706
H 0.4465 0.6043 3.8911
H 2.8127 -0.6595 2.2805
H 2.5958 -0.6067 4.1122
H 4.1006 1.2485 3.2747
H 2.6517 1.8152 4.1596
H 2.9607 1.9646 1.0807
H 2.9458 3.2723 2.2351
H 0.7702 2.9718 1.1417
H 0.6240 2.6736 2.8743
H 2.1091 -1.1843 -2.3539
H 2.7255 -0.2917 -3.8014
H 1.1942 -1.2385 -3.9163
H 0.9209 1.1742 -4.9984
H -0.3522 3.2270 -4.6347
H -1.0166 3.8770 -2.3625
H -0.4403 2.4996 -0.4596
H 5.6991 -0.8826 -1.8640
H 8.0672 -1.1570 -1.8917
H 10.0505 -1.4867 -1.7593
H 11.0451 -2.1531 -0.4620
H 11.4493 -0.5574 -1.2069
H 10.1303 0.2671 2.1932
H 11.4953 0.4650 1.0835
H 11.0918 -1.1517 1.7838
H 8.1682 0.7050 2.0711
H 5.8036 0.9043 1.9408
