61
 
P 0.9532 0.0049 -0.0882
C 0.1790 1.6246 -0.0193
C -1.1892 1.8904 -0.1185
C -1.6423 3.2167 0.0019
C -0.7369 4.2646 0.2274
C 0.6256 3.9963 0.3335
C 1.0786 2.6855 0.2078
C 0.4974 -0.4535 -1.7799
C 0.8691 0.2757 -2.9086
C 0.4435 -0.1399 -4.1814
C -0.3430 -1.2890 -4.3351
C -0.6948 -2.0429 -3.2176
C -0.2773 -1.6302 -1.9472
C 0.4811 -0.9893 1.3575
C 0.9446 -2.3289 1.4682
O 1.8004 -2.8291 0.5328
C 2.3822 -4.0856 0.5638
C 0.4755 -3.1360 2.5286
C -0.4411 -2.6367 3.4480
C -0.8857 -1.3209 3.3446
C -0.4243 -0.4971 2.3123
Ni 3.4132 0.0049 -0.0882
N 5.5132 0.0049 -0.0882
C 6.1364 -0.5076 1.0078
C 7.5300 -0.5461 1.0778
C 8.2781 -0.0711 0.0041
C 7.6234 0.4466 -1.1187
C 8.3474 0.9159 -2.2087
C 7.6812 1.4408 -3.3101
C 6.2667 1.5180 -3.3460
C 5.5518 2.1212 -4.5116
O 4.3314 2.1755 -4.4908
C 6.2466 2.7059 -5.7206
C 5.5292 1.0197 -2.2367
C 6.2116 0.4891 -1.1411
H -1.8922 1.0865 -0.2769
H -2.6969 3.4386 -0.0707
H -1.0862 5.2850 0.3264
H 1.3320 4.7987 0.5196
H 2.1435 2.4962 0.3072
H 1.4767 1.1597 -2.8010
H 0.7196 0.4320 -5.0542
H -0.6773 -1.5981 -5.3192
H -1.2947 -2.9414 -3.3389
H -0.5706 -2.2386 -1.0973
H 2.9389 -4.2615 -0.3783
H 1.6062 -4.8771 0.6458
H 3.0893 -4.1632 1.4188
H 0.7895 -4.1653 2.6416
H -0.8135 -3.2799 4.2362
H -1.6066 -0.9467 4.0587
H -0.8100 0.5081 2.2473
H 5.5436 -0.8809 1.8321
H 8.0266 -0.9441 1.9532
H 9.3606 -0.1052 0.0499
H 9.4314 0.8788 -2.2100
H 8.3120 1.7828 -4.1108
H 7.3463 2.6335 -5.7164
H 6.0003 3.7852 -5.7948
H 5.8958 2.1878 -6.6360
H 4.4267 1.0308 -2.1769
