71
 
P 0.9245 -0.0538 0.0375
C -0.0320 -0.8617 1.4347
C 0.2274 -2.3950 1.4624
C 1.6941 -2.7384 1.8020
C 2.0816 -2.2043 3.1822
C 1.8544 -0.6899 3.2314
C 0.3971 -0.3253 2.8429
C 0.8011 1.7727 0.0664
C 0.4605 3.3179 0.0432
C 1.4377 4.1404 0.9342
C 2.9158 3.8398 0.6284
C 3.1021 2.3244 0.5604
C 2.1945 1.8060 -0.5408
C 0.5657 -1.0278 -1.5268
C -0.7485 -1.1908 -2.0751
C -1.9729 -0.5511 -1.4975
C -0.9489 -1.9430 -3.2570
C 0.1207 -2.5105 -3.9379
C 1.4101 -2.3144 -3.4614
C 1.6279 -1.5820 -2.2784
Ni 3.3845 -0.0538 0.0375
N 5.4845 -0.0538 0.0375
C 6.2290 -1.0718 0.2812
C 5.7273 -2.4425 0.5311
C 4.5916 -2.9072 -0.1367
C 4.1077 -4.2005 0.0742
C 4.7503 -5.0395 0.9836
C 5.8929 -4.5923 1.6539
C 6.3926 -3.3054 1.4151
N 7.5989 -0.7487 0.2514
C 7.7125 0.5652 -0.3169
C 6.2980 1.1232 -0.1666
H -1.1136 -0.6828 1.3106
H -0.0445 -2.8467 0.4883
H -0.4145 -2.8662 2.2411
H 2.3581 -2.2848 1.0449
H 1.8432 -3.8397 1.7911
H 3.1523 -2.4348 3.3945
H 1.4710 -2.7115 3.9619
H 2.5661 -0.2035 2.5376
H 2.0837 -0.3324 4.2615
H 0.2591 0.7729 2.9096
H -0.2626 -0.7892 3.6130
H -0.0473 1.6065 -0.6349
H -0.5696 3.5301 0.4048
H 0.5187 3.7078 -1.0038
H 1.2436 3.8762 1.9934
H 1.2544 5.2345 0.8095
H 3.5804 4.3105 1.3816
H 3.1892 4.2645 -0.3638
H 2.9057 1.7650 1.4865
H 4.0819 1.9706 0.3668
H 2.2059 1.6774 -1.6305
H 2.4385 2.5246 -1.3347
H -1.7655 0.0326 -0.5946
H -2.7547 -1.3063 -1.2734
H -2.3668 0.1631 -2.2520
H -1.9439 -2.0806 -3.6699
H -0.0502 -3.0776 -4.8507
H 2.2396 -2.7286 -4.0255
H 2.6379 -1.4278 -1.9775
H 4.1033 -2.2724 -0.8385
H 3.2309 -4.5460 -0.4610
H 4.3654 -6.0347 1.1644
H 6.3905 -5.2430 2.3594
H 7.2763 -2.9738 1.9431
H 8.3684 -1.4313 0.3055
H 7.9410 0.4261 -1.3985
H 8.4798 1.2111 0.1567
H 5.9998 1.7122 -1.0606
H 6.2293 1.7390 0.7575
