52
 
P 0.9654 0.0704 0.0621
C 0.1608 -0.8329 1.4989
C -1.3691 -0.8196 1.4778
C 0.6562 -2.2985 1.4819
C 0.6392 -0.2247 2.8438
C 0.4066 1.7326 0.4945
C 1.2106 2.6493 1.1759
C 0.6968 3.9174 1.4965
C -0.6044 4.2767 1.1175
C -1.3926 3.3794 0.4009
C -0.8882 2.1189 0.0877
C 0.6160 -0.8497 -1.4366
C -0.7096 -1.0302 -1.8994
C -0.9642 -1.7071 -3.0901
C 0.1009 -2.1851 -3.8480
C 1.4252 -1.9806 -3.4122
C 1.6950 -1.3132 -2.1926
Ni 3.4254 0.0704 0.0621
N 5.5254 0.0704 0.0621
C 6.1672 -0.8865 -0.6514
C 7.5512 -1.0072 -0.5655
C 8.2814 -0.1045 0.2321
O 9.6290 -0.1934 0.3736
C 10.4033 -1.2251 -0.1192
C 7.5915 0.9046 0.9177
C 6.1977 0.9623 0.8348
H -1.7571 -1.3389 0.5904
H -1.7606 0.2107 1.5360
H -1.7682 -1.3693 2.3550
H 0.3034 -2.8396 0.5803
H 0.2959 -2.8520 2.3779
H 1.7694 -2.3418 1.4950
H 0.3679 0.8428 2.9460
H 1.7411 -0.3217 2.9666
H 0.1619 -0.7499 3.7007
H 2.2149 2.3706 1.4701
H 1.3027 4.6246 2.0433
H -1.0036 5.2509 1.3710
H -2.3952 3.6552 0.0905
H -1.5212 1.4450 -0.4733
H -1.5648 -0.6416 -1.3729
H -1.9882 -1.8487 -3.4294
H -0.1113 -2.7040 -4.7775
H 2.2297 -2.3437 -4.0336
H 2.7248 -1.1238 -1.7986
H 5.5950 -1.5932 -1.2375
H 8.0343 -1.8106 -1.1028
H 11.4667 -1.0487 0.1370
H 10.3088 -1.2835 -1.2240
H 10.0835 -2.1882 0.3371
H 8.1239 1.6194 1.5336
H 5.6458 1.7113 1.3882
