77
 
P 1.0984 -0.0114 0.0133
C 0.5538 0.8494 -1.5021
C -0.2818 1.9847 -1.5968
C -0.7566 2.4257 -2.8398
C -0.3880 1.7565 -4.0054
C 0.4552 0.6494 -3.9285
C 0.9145 0.2016 -2.6893
C 0.7528 -1.7673 0.3133
C -0.0805 -2.4835 -0.5713
C -0.3791 -3.8327 -0.3345
C 0.1590 -4.4821 0.7776
C 1.0007 -3.7855 1.6495
C 1.2958 -2.4330 1.4214
C 0.3021 1.0032 1.3304
C -1.1912 1.0080 1.3676
C -1.9184 -0.1804 1.5075
C -3.3126 -0.1492 1.4709
C -3.9833 1.0669 1.3026
C -3.2626 2.2581 1.2155
C -1.8757 2.2308 1.2706
Ni 3.5584 -0.0114 0.0133
C 5.7084 -0.0114 0.0133
N 6.4773 -1.1275 0.0391
C 5.9547 -2.4941 0.0670
C 5.0587 -2.7072 -1.1512
C 4.4605 -4.1138 -1.2243
C 3.6270 -4.2509 -2.4979
C 7.7587 -0.6761 0.0348
C 7.7388 0.6964 0.0256
C 8.9147 1.4564 0.0233
C 10.1401 0.7742 0.0173
C 10.1711 -0.6354 0.0286
C 8.9723 -1.3821 0.0420
N 6.4545 1.1129 0.0213
C 5.9241 2.4702 -0.0018
C 6.3206 3.1530 -1.3118
C 5.7778 2.3295 -2.4860
C 6.1833 2.9288 -3.8130
H -0.6074 2.5337 -0.7534
H -1.4249 3.2781 -2.9003
H -0.7592 2.0896 -4.9663
H 0.7382 0.1195 -4.8263
H 1.5325 -0.6853 -2.6492
H -0.5173 -2.0020 -1.4366
H -1.0313 -4.3774 -1.0083
H -0.0759 -5.5245 0.9634
H 1.4203 -4.2967 2.5059
H 1.9478 -1.9102 2.1061
H 0.7072 2.0343 1.2401
H 0.6742 0.6063 2.3016
H -1.4147 -1.1274 1.6344
H -3.8701 -1.0704 1.5600
H -5.0608 1.0905 1.2476
H -3.7692 3.2056 1.0943
H -1.3316 3.1674 1.2039
H 5.3476 -2.6314 0.9885
H 6.7861 -3.2307 0.0778
H 5.6802 -2.5410 -2.0622
H 4.2172 -1.9637 -1.0819
H 3.8135 -4.2920 -0.3385
H 5.2683 -4.8793 -1.2392
H 2.8122 -3.4953 -2.5064
H 3.1779 -5.2637 -2.5568
H 4.2680 -4.0961 -3.3938
H 8.9063 2.5362 0.0260
H 11.0660 1.3381 0.0064
H 11.1297 -1.1398 0.0287
H 9.0144 -2.4618 0.0535
H 6.3032 3.0363 0.8762
H 4.8058 2.4239 0.0536
H 7.4218 3.2445 -1.3983
H 5.9082 4.1844 -1.3306
H 4.6705 2.2839 -2.4100
H 6.1801 1.2926 -2.4585
H 5.8289 3.9775 -3.8710
H 5.7287 2.3358 -4.6336
H 7.2898 2.8863 -3.9065
