35
 
C 0.9010 -0.6430 -0.0020
N -0.3487 -1.1319 0.0070
C -0.7183 -2.5369 0.0046
C -1.1761 -0.0670 0.0099
C -0.4026 1.0762 0.0072
N 0.8925 0.7066 -0.0006
C 2.0362 1.6042 0.0069
Ni 2.6584 -1.8814 -0.0135
N 4.3750 -3.0911 -0.0247
C 5.6288 -2.5478 -0.1576
N 5.7742 -1.1244 -0.3395
C 4.5882 -0.2885 -0.4363
C 7.0578 -0.4575 -0.5648
C 6.7349 -3.4332 -0.2128
C 6.5320 -4.8097 -0.1627
C 5.2449 -5.3184 -0.0519
C 4.1707 -4.4351 0.0227
H 0.2038 -3.1678 0.0000
H -1.3251 -2.7571 -0.8998
H -1.3211 -2.7624 0.9096
H -2.2571 -0.1116 0.0143
H -0.7548 2.1003 0.0125
H 1.7094 2.6639 0.0230
H 2.6368 1.4454 -0.9095
H 2.6367 1.4245 0.9209
H 3.8325 -0.7063 -1.1026
H 4.8501 0.6548 -0.9609
H 4.1970 -0.0545 0.5527
H 7.9407 -1.1113 -0.5609
H 7.2274 0.3046 0.2261
H 7.0510 0.0491 -1.5527
H 7.7557 -3.1184 -0.3281
H 7.3782 -5.4822 -0.2322
H 5.0828 -6.3881 -0.0362
H 3.1617 -4.8182 0.0947
