50
 
C 0.9029 -0.6366 -0.0010
N 0.9023 0.6852 -0.2001
C 2.0734 1.5159 -0.4232
C -0.3838 1.0782 -0.1095
C -1.1587 -0.0403 0.1456
N -0.3390 -1.1074 0.2072
C -0.6998 -2.5028 0.4106
Ni 2.6554 -1.8772 -0.0150
P 4.6639 -3.3045 -0.0306
C 5.7941 -2.9380 -1.3919
C 6.3347 -1.6451 -1.4853
C 6.9143 -1.2006 -2.6824
C 6.9645 -2.0443 -3.7943
C 6.4392 -3.3345 -3.7115
C 5.8429 -3.7766 -2.5246
C 5.7021 -2.7734 1.3883
C 5.3576 -1.7535 2.2781
C 6.2244 -1.4334 3.3444
C 7.4271 -2.1294 3.5350
C 7.7465 -3.1841 2.6998
C 6.8866 -3.5111 1.6624
C 4.1144 -5.0393 -0.1294
C 2.7407 -5.3514 -0.1842
C 2.3129 -6.6675 -0.3003
C 3.2436 -7.6944 -0.2777
C 4.6054 -7.3814 -0.1803
O 5.4238 -8.2815 -0.1217
N 5.0194 -6.0637 -0.1442
H 2.9924 0.8840 -0.4289
H 2.1489 2.2549 0.4031
H 1.9839 2.0546 -1.3894
H -0.7338 2.0968 -0.2146
H -2.2336 -0.0713 0.2683
H -1.8006 -2.6063 0.5173
H -0.1941 -2.9036 1.3133
H -0.3752 -3.0874 -0.4767
H 6.2373 -0.9459 -0.6634
H 7.2836 -0.1856 -2.7682
H 7.3811 -1.6886 -4.7297
H 6.4496 -3.9754 -4.5845
H 5.3670 -4.7430 -2.5304
H 4.4254 -1.2272 2.1558
H 5.9702 -0.6425 4.0294
H 8.1081 -1.8738 4.3365
H 8.6603 -3.7573 2.8469
H 7.2092 -4.3565 1.1052
H 1.9694 -4.6078 -0.1344
H 1.2531 -6.8847 -0.3838
H 2.8975 -8.7206 -0.3201
H 6.0402 -5.8447 -0.0949
