73
 
P -1.3500 0.0010 0.7980
N -0.1522 1.3418 0.6990
C 0.3738 1.7016 2.0209
C 0.8452 1.6090 -0.3478
C 0.4438 1.0700 -1.6497
N 0.6421 -0.4087 -1.8507
C 0.6961 -1.6026 -0.9240
C 0.9961 -1.3997 0.5648
N -0.1941 -1.1623 1.4492
C -0.9259 -2.3866 1.7839
N -2.0598 0.1123 -0.9339
C -3.3770 0.7412 -1.0886
C -1.7415 -0.7207 -2.1749
C -0.3346 -0.7224 -2.8501
Ni -3.3226 0.0026 2.2679
C -5.0466 0.0040 3.5525
N -5.9985 0.9648 3.5694
C -5.9896 2.1715 2.7357
C -4.6739 2.9232 2.9790
C -6.0805 1.8017 1.2624
C -6.8872 0.5602 4.5066
C -6.4717 -0.6430 5.0322
C -7.2241 -1.2994 6.0241
C -8.3939 -0.6841 6.4928
C -8.8139 0.5477 5.9573
C -8.0651 1.1825 4.9470
N -5.2940 -1.0125 4.4572
C -4.4875 -2.2522 4.7877
C -3.5243 -2.0131 5.9610
C -4.0548 -1.3228 7.0442
C -3.2612 -0.7966 8.0351
C -1.9025 -1.0634 8.0608
C -1.3435 -1.9072 7.0951
C -2.1392 -2.3624 6.0138
H -0.4034 1.5940 2.8055
H 0.7006 2.7636 2.0178
H 1.2433 1.0609 2.2861
H 1.8893 1.3322 -0.1144
H 0.8365 2.7171 -0.4802
H 0.9299 1.6113 -2.4897
H -0.5733 1.4825 -1.8118
H 1.4564 -2.2828 -1.3756
H -0.1784 -2.2822 -0.9581
H 1.7892 -0.6466 0.6824
H 1.4857 -2.3402 0.9036
H -0.2397 -3.1377 2.2286
H -1.4378 -2.8217 0.8990
H -1.6937 -2.1467 2.5521
H -4.0682 0.3556 -0.3478
H -3.9066 0.4362 -2.0261
H -3.2548 1.8385 -1.1787
H -1.9974 -1.7610 -1.9494
H -2.2830 -0.2951 -3.0554
H -0.2174 -0.0121 -3.7152
H -0.1313 -1.6973 -3.3556
H -6.8631 2.8169 2.9712
H -3.7812 2.2428 2.7434
H -4.6491 3.2517 4.0406
H -4.6568 3.8414 2.3490
H -5.2056 1.1921 1.0521
H -6.0553 2.7057 0.6143
H -6.9923 1.2141 1.0320
H -6.9185 -2.2451 6.4529
H -8.9751 -1.1610 7.2735
H -9.7231 1.0029 6.3299
H -8.4067 2.1243 4.5431
H -3.9371 -2.6318 3.9001
H -5.1930 -3.0598 5.0894
H -5.0858 -1.1097 7.1083
H -3.7319 -0.1536 8.7610
H -1.3011 -0.6148 8.8391
H -0.2874 -2.1498 7.1788
H -1.6546 -2.9534 5.2423
