54
 
C 0.9010 -0.6430 -0.0020
N -0.3452 -1.1253 0.0105
C -0.6956 -2.5433 0.0218
C 0.6222 -3.4056 0.0155
C -1.5262 -2.8295 1.2888
C -1.5645 -2.8469 -1.2196
C -1.1662 -0.0473 0.0113
C -0.3858 1.0868 0.0017
N 0.9039 0.6975 -0.0094
C 2.0913 1.5305 -0.0283
C 2.1219 2.4134 1.2364
C 3.3073 0.6050 -0.0515
C 2.0815 2.4102 -1.2868
Ni 2.6584 -1.8814 -0.0135
N 4.3750 -3.0911 -0.0247
C 4.2330 -3.2603 -1.4874
C 4.1968 -4.4905 0.3976
C 5.7337 -2.5464 0.0472
C 5.9452 -1.1823 0.1318
C 7.1784 -0.5657 -0.0189
C 8.2993 -1.3430 -0.2455
C 8.1675 -2.7336 -0.2874
C 6.9013 -3.3383 -0.1423
H 1.2629 -3.2010 0.8862
H 1.2416 -3.2002 -0.8641
H 0.3473 -4.4799 0.0175
H -0.9328 -2.6034 2.1990
H -1.8552 -3.8886 1.3206
H -2.4403 -2.1920 1.3158
H -1.0093 -2.6240 -2.1545
H -2.4875 -2.2209 -1.2211
H -1.8866 -3.9089 -1.2335
H -2.2478 -0.0718 0.0181
H -0.7276 2.1143 0.0001
H 2.1220 1.7833 2.1524
H 1.2295 3.0746 1.2755
H 3.0278 3.0565 1.2507
H 3.2852 -0.0645 0.8229
H 4.2161 1.2474 -0.0577
H 3.3365 -0.0895 -0.9057
H 1.1881 3.0708 -1.2938
H 2.0496 1.7715 -2.1953
H 2.9889 3.0493 -1.3250
H 3.2374 -3.6788 -1.7539
H 5.0122 -3.8904 -1.9788
H 4.2534 -2.2603 -1.9822
H 3.1238 -4.7733 0.3821
H 4.5971 -4.6389 1.4191
H 4.7430 -5.2391 -0.2362
H 5.1560 -0.5952 0.2928
H 7.2455 0.5170 0.0179
H 9.2580 -0.8612 -0.3896
H 9.0458 -3.3361 -0.4666
H 6.8445 -4.4105 -0.2387
