60
 
P 1.2750 0.0000 0.0000
N 0.4681 1.5321 -0.2525
C 1.1167 2.5077 0.6881
C 2.6763 2.6222 0.4723
C 0.5367 3.9177 0.5535
C -0.9888 1.4161 -0.2309
C -1.4201 -0.0285 0.0149
C -2.9547 -0.0732 0.0113
C -0.8436 -0.9588 -1.1444
N 0.6510 -0.9451 -1.3572
C 1.2136 -2.3544 -1.2911
C 0.6509 -3.3430 -2.3186
C 2.7582 -2.4616 -1.3814
N 0.6473 -0.3670 1.6137
C 1.2183 -1.6685 2.1220
C 2.7703 -1.7099 2.1881
C 0.6630 -2.1199 3.4805
C -0.8498 -0.4585 1.4353
Ni 3.7350 0.0003 -0.0005
N 5.8350 0.0006 -0.0009
C 6.4779 1.1974 -0.0493
C 7.8691 1.2431 -0.1612
C 8.5879 0.0464 -0.2208
Cl 10.3321 0.0780 -0.4062
C 7.9089 -1.1742 -0.1504
C 6.5147 -1.1762 -0.0387
H 0.9423 2.1891 1.7414
H 2.9506 2.8471 -0.5756
H 3.2554 1.7385 0.7388
H 3.0970 3.4032 1.1417
H 0.7220 4.3141 -0.4639
H 1.0161 4.5802 1.3073
H -0.5450 3.9505 0.7721
H -1.3657 1.7696 -1.2170
H -1.4391 2.0490 0.5559
H -3.3432 0.2610 -0.9765
H -3.3603 0.6123 0.7875
H -3.3177 -1.0996 0.2135
H -1.3090 -0.6732 -2.1118
H -1.2183 -1.9725 -0.8940
H 0.8989 -2.8240 -0.3760
H 0.9612 -3.0702 -3.3428
H -0.4478 -3.4455 -2.2594
H 1.0556 -4.3578 -2.0786
H 3.1276 -2.2240 -2.3949
H 3.0735 -3.4945 -1.1044
H 3.3181 -1.8353 -0.7040
H 0.8877 -2.4853 1.5031
H 3.1463 -1.0318 2.9807
H 3.3033 -1.4885 1.2423
H 3.0934 -2.7473 2.4244
H 0.9560 -1.4302 4.2915
H 1.0654 -3.1376 3.7007
H -0.4385 -2.2397 3.4658
H -1.3093 0.1866 2.2166
H -1.2279 -1.4871 1.5983
H 5.9031 2.1140 -0.0293
H 8.3784 2.1967 -0.2207
H 8.4527 -2.1088 -0.2016
H 5.9712 -2.1112 -0.0116
