84
 
P 1.2750 0.0000 0.0000
N 0.4694 1.5331 -0.2440
C 1.1184 2.5031 0.7001
C 2.6799 2.6098 0.4922
C 0.5394 3.9126 0.5650
C -0.9882 1.4240 -0.2258
C -1.4288 -0.0126 0.0326
C -2.9616 -0.0516 0.0319
C -0.8942 -0.9385 -1.1303
N 0.5891 -0.9558 -1.3396
C 1.0842 -2.3806 -1.2569
C 0.5292 -3.3762 -2.2772
C 2.5865 -2.4786 -1.3396
N 0.6633 -0.3609 1.6182
C 1.2456 -1.6608 2.1232
C 2.7990 -1.7114 2.1897
C 0.6991 -2.1175 3.4794
C -0.8388 -0.4524 1.4470
Ni 3.7350 0.0003 -0.0005
P 6.1950 0.0007 -0.0009
N 7.1294 1.0137 -1.1315
C 6.6671 2.3984 -1.0481
C 8.5722 0.9435 -1.3936
C 9.1005 -0.4361 -1.3174
N 9.3795 -0.9876 0.0548
C 8.8817 -0.6546 1.4397
C 8.2337 0.7058 1.7089
N 6.7536 0.7960 1.4743
C 5.9732 0.2357 2.5802
N 6.6995 -1.6635 -0.7044
C 5.8663 -2.2390 -1.7513
C 7.6826 -2.7050 -0.1813
C 9.2086 -2.4036 -0.1111
H 0.9390 2.1833 1.7518
H 2.9645 2.8223 -0.5553
H 3.2466 1.7258 0.7773
H 3.0996 3.3939 1.1587
H 0.7263 4.3076 -0.4525
H 1.0140 4.5728 1.3227
H -0.5430 3.9453 0.7798
H -1.3604 1.7722 -1.2165
H -1.4383 2.0603 0.5556
H -3.3471 0.2793 -0.9594
H -3.3630 0.6356 0.8061
H -3.3236 -1.0792 0.2311
H -1.3506 -0.6443 -2.0995
H -1.2943 -1.9442 -0.8847
H 0.7558 -2.8400 -0.3445
H 0.8345 -3.1119 -3.3047
H -0.5659 -3.4895 -2.1990
H 0.9486 -4.3845 -2.0268
H 2.9167 -2.1850 -2.3572
H 2.9433 -3.5035 -1.0926
H 3.0690 -1.8312 -0.6128
H 0.9194 -2.4758 1.5092
H 3.1726 -1.0758 3.0150
H 3.3612 -1.4578 1.2730
H 3.1121 -2.7620 2.3757
H 1.0081 -1.4311 4.2870
H 1.1012 -3.1381 3.6885
H -0.4026 -2.2291 3.4730
H -1.2935 0.1915 2.2310
H -1.2140 -1.4823 1.6080
H 5.5570 2.4383 -0.9796
H 6.9647 2.9577 -1.9591
H 7.1039 2.8837 -0.1508
H 9.1965 1.6545 -0.8322
H 8.6806 1.2241 -2.4681
H 10.0177 -0.5564 -1.9319
H 8.4303 -1.0373 -1.9724
H 9.7718 -0.7811 2.0990
H 8.2084 -1.4046 1.9020
H 8.8094 1.5013 1.2168
H 8.4155 0.9039 2.7896
H 6.2761 0.6873 3.5470
H 6.0706 -0.8711 2.6381
H 4.9048 0.4929 2.4247
H 4.8741 -2.0383 -1.4900
H 5.9035 -3.3581 -1.7940
H 6.1230 -1.8341 -2.7434
H 7.3409 -3.0158 0.8115
H 7.7521 -3.5749 -0.8787
H 9.8002 -2.7412 -1.0057
H 9.6907 -2.9916 0.7061
