47
 
P -1.2519 -0.0489 0.9932
N -1.1540 -1.2658 -0.3072
C -2.3302 -1.1203 -1.1931
C 0.0380 -1.4842 -1.1339
C 1.3090 -1.2763 -0.3936
N 1.9697 0.1128 -0.3529
C 1.2771 1.4986 -0.2494
C -0.0915 1.6672 -0.9040
N -1.3364 1.3705 -0.0802
C -1.7685 2.4998 0.7445
N 0.1303 -0.3642 2.2456
C -0.1083 -1.4937 3.0893
C 1.6530 -0.0971 2.1596
C 2.7000 0.0145 0.9157
Ni -3.2770 0.0420 2.3668
N -4.9706 0.0695 3.5393
C -5.7117 1.2007 3.6899
C -6.7686 1.2417 4.6141
F -7.4457 2.3955 4.8315
C -7.1045 0.0954 5.3348
C -6.3997 -1.0852 5.1105
C -5.3152 -1.0747 4.2162
H -3.2909 -0.9831 -0.6424
H -2.4400 -2.0141 -1.8418
H -2.1980 -0.2348 -1.8521
H 0.0452 -0.9401 -2.0754
H -0.0124 -2.5729 -1.3800
H 1.9915 -2.1523 -0.2319
H 0.9478 -1.6927 0.5370
H 2.0113 2.3378 -0.0990
H 0.9943 1.9199 0.7410
H -0.0413 1.0826 -1.8147
H -0.1217 2.7159 -1.2624
H -1.8266 3.4224 0.1261
H -1.0578 2.6678 1.5813
H -2.7852 2.2740 1.1803
H -1.0419 -1.3300 3.6342
H 0.7295 -1.5499 3.8259
H -0.0813 -2.3839 2.4368
H 1.0378 0.2312 1.5173
H 2.0494 -1.1004 2.2745
H 3.4495 -0.8348 0.8409
H 3.4856 0.8076 1.0150
H -5.4612 2.0794 3.1199
H -7.9080 0.1250 6.0640
H -6.6764 -1.9868 5.6503
H -4.7396 -1.9825 4.0841
