35
 
C 1.0240 -0.6530 -0.0550
N 1.0554 0.6166 -0.1248
C 2.2745 1.3930 -0.2514
C 3.5391 0.5134 -0.4014
C -0.2715 1.1672 0.0622
C -1.1873 -0.0667 -0.0501
N -0.2679 -1.1536 0.1563
C -0.6350 -2.5319 0.3979
C 0.5965 -3.4421 0.5305
Ni 2.7802 -1.8697 -0.2955
N 4.4956 -3.0582 -0.5304
C 4.4112 -4.3786 -0.2173
C 5.5500 -5.1860 -0.2669
F 5.4734 -6.4995 0.0605
C 6.7716 -4.6196 -0.6369
C 6.8364 -3.2621 -0.9612
C 5.6730 -2.4884 -0.9030
H 2.3739 2.0316 0.6555
H 2.1897 2.0593 -1.1350
H 3.6701 -0.1744 0.4468
H 4.4273 1.1731 -0.4385
H 3.4929 -0.0864 -1.3269
H -0.5518 1.9408 -0.6836
H -0.3171 1.5869 1.0922
H -1.5633 -0.1659 -1.0955
H -2.0376 -0.0307 0.6617
H -1.2917 -2.8988 -0.4200
H -1.2170 -2.5662 1.3472
H 1.1508 -3.5007 -0.4224
H 0.2365 -4.4595 0.8030
H 1.2608 -3.0805 1.3400
H 3.4605 -4.7949 0.0889
H 7.6664 -5.2281 -0.6644
H 7.7806 -2.8120 -1.2389
H 5.7130 -1.4310 -1.1256
