33
 
C 0.9010 -0.6430 -0.0020
N -0.3446 -1.0976 0.0156
C -0.6898 -2.5111 0.0327
C 0.6012 -3.3969 0.0262
C -1.1328 0.0008 0.0139
C -0.3040 1.1194 -0.0041
N 0.9729 0.6842 -0.0126
C 2.2219 1.4421 -0.0263
C 3.4600 0.5022 -0.0335
Ni 2.6584 -1.8814 -0.0135
N 4.3750 -3.0911 -0.0247
C 4.2097 -4.4382 0.0624
C 5.3212 -5.2772 0.1682
C 6.6001 -4.7173 0.1655
F 7.6905 -5.5139 0.2881
C 6.7509 -3.3330 0.0477
C 5.6121 -2.5260 -0.0437
H -1.3230 -2.7327 -0.8561
H -1.3005 -2.7170 0.9409
H 1.2343 -3.2218 -0.8517
H 0.2589 -4.4542 0.0358
H 1.2500 -3.2091 0.8902
H -2.2154 -0.0008 0.0250
H -0.6092 2.1585 -0.0098
H 2.2536 2.0920 0.8747
H 2.2408 2.0902 -0.9290
H 3.4835 -0.1507 0.8531
H 4.3750 1.1259 -0.0302
H 3.4773 -0.1449 -0.9255
H 3.2119 -4.8547 0.0897
H 5.1901 -6.3472 0.2687
H 7.7381 -2.8893 0.0461
H 5.7126 -1.4514 -0.1092
