39
 
C 0.9010 -0.6430 -0.0020
N -0.3459 -1.1023 -0.0233
C -0.6956 -2.5145 -0.0426
C 0.5875 -3.3938 0.0503
C -1.1399 -0.0089 -0.0234
C -0.3186 1.1130 0.0029
N 0.9610 0.6856 0.0087
C 2.1987 1.4558 0.0240
C 3.4457 0.5225 -0.0238
Ni 2.6584 -1.8814 -0.0135
C 4.4159 -3.1199 -0.0250
N 4.5143 -4.2229 0.6290
C 3.6185 -4.6101 1.6946
C 5.8268 -4.8019 0.4731
C 6.3530 -4.0772 -0.7528
N 5.6227 -2.8304 -0.7063
C 5.7827 -1.7976 -1.7035
H -1.2718 -2.7375 -0.9683
H -1.3568 -2.7207 0.8288
H 1.2988 -3.2524 -0.7678
H 0.2573 -4.4545 0.0895
H 1.1373 -3.1267 0.9439
H -2.2223 -0.0175 -0.0378
H -0.6309 2.1500 0.0126
H 2.2063 2.0916 0.9384
H 2.2158 2.1302 -0.8600
H 3.4731 -0.2078 0.7890
H 4.3409 1.1737 0.0640
H 3.4847 -0.0457 -0.9636
H 2.7936 -3.9007 1.8154
H 4.1760 -4.5215 2.6592
H 3.2720 -5.6517 1.5831
H 5.8267 -5.9072 0.3678
H 6.4372 -4.5004 1.3556
H 5.9890 -4.6420 -1.6483
H 7.4564 -3.9889 -0.8027
H 6.6765 -2.0133 -2.3337
H 5.9286 -0.8204 -1.2091
H 4.9019 -1.7682 -2.3821
