68
 
C 0.9010 -0.6430 -0.0020
N 0.9491 0.6913 0.0365
C 2.1737 1.4886 0.0919
C 3.4278 0.5320 0.0823
C 2.1951 2.4265 -1.1311
C 2.1442 2.3502 1.3757
C -0.3363 1.1116 0.0255
C -1.1466 -0.0008 -0.0210
N -0.3536 -1.0962 -0.0296
C -0.7451 -2.4997 -0.0327
C -1.6086 -2.7852 -1.2865
C 0.5562 -3.4003 -0.0092
C -1.6166 -2.7302 1.2204
Ni 2.6584 -1.8814 -0.0135
P 4.6693 -3.2985 -0.0267
O 4.7925 -4.9938 -0.2225
C 3.8263 -5.3266 -1.2651
C 4.2879 -4.9635 -2.7045
C 3.5007 -6.8198 -1.2842
O 5.7566 -3.1510 -1.3456
C 6.0485 -1.9037 -1.8638
C 7.0251 -1.2514 -0.9151
C 6.7478 -2.1646 -3.2211
O 5.4604 -3.0783 1.4734
C 4.6561 -3.4299 2.5852
C 4.1700 -4.8964 2.6004
C 5.5195 -3.2221 3.8344
H 3.4662 -0.0856 -0.8273
H 3.4371 -0.1700 0.9296
H 4.3487 1.1475 0.1323
H 2.1965 1.8355 -2.0703
H 3.0841 3.0899 -1.1129
H 1.2901 3.0773 -1.1448
H 2.0981 1.7113 2.2823
H 1.2477 3.0133 1.3892
H 3.0377 3.0056 1.4403
H -0.6666 2.1420 0.0555
H -2.2293 -0.0054 -0.0337
H -1.0308 -2.6137 -2.2179
H -2.5008 -2.1158 -1.3204
H -1.9884 -3.8289 -1.2848
H 1.2027 -3.2374 -0.8800
H 0.2338 -4.4640 0.0390
H 1.2256 -3.1886 0.8339
H -2.5039 -2.0519 1.2148
H -1.0336 -2.4974 2.1350
H -2.0001 -3.7686 1.2718
H 2.8372 -4.8370 -1.0913
H 5.3050 -5.3684 -2.8893
H 4.2563 -3.8741 -2.8964
H 3.5986 -5.3614 -3.4803
H 4.4183 -7.4122 -1.4671
H 2.7825 -7.0337 -2.1155
H 3.0058 -7.1336 -0.3455
H 5.1347 -1.3016 -2.0533
H 7.8706 -1.9574 -0.7414
H 6.5090 -1.0664 0.0464
H 7.3999 -0.3025 -1.3375
H 7.6284 -2.8368 -3.0893
H 7.1010 -1.2209 -3.6837
H 6.0710 -2.6688 -3.9475
H 3.7897 -2.7380 2.6526
H 5.0251 -5.6009 2.5004
H 3.4293 -5.0908 1.8003
H 3.6494 -5.1129 3.5581
H 6.3977 -3.9072 3.8204
H 4.9297 -3.4254 4.7535
H 5.8925 -2.1779 3.8786
