61
 
P 0.9980 -0.0980 0.0199
C 0.2315 -0.8309 1.6818
C -1.3062 -0.9012 1.7921
C 0.7425 -2.2642 2.0118
C 0.7083 -0.0315 2.9186
C 0.5257 1.8024 -0.0858
C 1.1347 2.6883 1.0206
C 1.0353 2.4626 -1.3916
C -1.0097 2.0664 -0.0975
C 0.4662 -1.2640 -1.4331
C -1.0751 -1.3542 -1.5624
C 0.9513 -0.7254 -2.7964
C 1.0060 -2.7042 -1.3629
Ni 3.4580 -0.0980 0.0199
P 5.9180 -0.0980 0.0199
N 6.8240 0.5928 1.3775
C 6.4613 -0.0073 2.6784
C 8.2475 0.7472 1.1749
O 6.4407 -1.7155 0.1509
C 6.0642 -2.3818 -1.0331
O 6.2334 1.1804 -1.0683
C 5.8609 0.7731 -2.3654
H -1.7653 -1.6592 1.1632
H -1.8064 0.0437 1.6421
H -1.6054 -1.2080 2.8160
H 0.3152 -3.0473 1.3883
H 0.3747 -2.5847 3.0157
H 1.8519 -2.3326 2.0424
H 0.2180 0.9307 2.9894
H 1.8183 0.0238 2.9938
H 0.3473 -0.4944 3.8653
H 2.2404 2.6529 0.9950
H 0.7871 2.5159 2.0266
H 0.8038 3.7428 0.8761
H 2.1363 2.3906 -1.4878
H 0.7628 3.5455 -1.4037
H 0.5343 2.1069 -2.2971
H -1.5066 1.8169 0.8368
H -1.5273 1.6093 -0.9596
H -1.2335 3.1504 -0.1840
H -1.5543 -0.3664 -1.6143
H -1.5289 -1.9555 -0.7778
H -1.3815 -1.8942 -2.4822
H 0.5329 0.2520 -3.0315
H 0.5606 -1.3619 -3.6253
H 2.0554 -0.7101 -2.8770
H 0.5956 -3.2861 -0.5455
H 2.1129 -2.7260 -1.3353
H 0.6605 -3.2798 -2.2526
H 5.3595 -0.1543 2.7741
H 6.7443 0.6835 3.5050
H 6.9736 -0.9776 2.8450
H 8.4112 1.3768 0.2785
H 8.7266 -0.2431 1.0705
H 8.6702 1.3000 2.0437
H 6.5535 -3.3772 -1.0543
H 6.4276 -1.8787 -1.9546
H 4.9642 -2.5397 -1.0642
H 5.7429 1.6785 -2.9947
H 4.8751 0.2545 -2.3917
H 6.6588 0.1644 -2.8447
