59
 
C 2.3270 0.0340 0.0000
N 1.5337 1.1344 0.0082
C 1.9979 2.5195 0.0420
C 2.8808 2.8480 -1.1624
C 2.1417 2.7188 -2.4974
C 3.0845 3.0835 -3.6399
C 0.2627 0.6598 0.0100
C 0.3035 -0.7100 0.0132
C -0.8646 -1.4843 0.0247
C -2.0987 -0.8184 0.0144
C -2.1480 0.5899 0.0114
C -0.9595 1.3499 0.0149
N 1.5943 -1.1085 0.0030
C 2.1207 -2.4729 -0.0310
C 1.6851 -3.1953 -1.3178
C 2.1631 -2.4402 -2.5633
C 1.7034 -3.1338 -3.8381
Ni 4.4769 0.0580 0.0014
N 6.5767 0.0815 0.0028
C 7.2495 0.1818 1.1878
N 6.5222 0.2944 2.4235
C 7.1253 -0.0571 3.7061
C 5.1723 0.8507 2.4549
C 8.6604 0.2618 1.1557
C 9.3289 0.2438 -0.0712
C 8.6050 0.1376 -1.2559
C 7.2150 0.0611 -1.1971
H 2.6021 2.6619 0.9636
H 1.1423 3.2244 0.0815
H 3.7631 2.1713 -1.1640
H 3.2396 3.8939 -1.0483
H 1.2625 3.4001 -2.5139
H 1.7856 1.6749 -2.6400
H 3.4372 4.1310 -3.5223
H 2.5618 2.9880 -4.6134
H 3.9651 2.4052 -3.6364
H -0.8484 -2.5630 0.0435
H -3.0169 -1.3941 0.0116
H -3.1118 1.0835 0.0092
H -1.0144 2.4288 0.0166
H 1.7667 -3.0307 0.8626
H 3.2324 -2.4436 -0.0040
H 0.5851 -3.2946 -1.3658
H 2.1016 -4.2249 -1.3126
H 3.2719 -2.3818 -2.5509
H 1.7496 -1.4077 -2.5682
H 2.0960 -4.1712 -3.8726
H 2.0819 -2.5729 -4.7179
H 0.5927 -3.1565 -3.8823
H 8.0541 -0.6533 3.5903
H 6.4235 -0.6920 4.2857
H 7.3403 0.8559 4.3057
H 4.8397 1.3198 1.5278
H 5.1958 1.7266 3.1491
H 4.4633 0.1125 2.8675
H 9.2491 0.3884 2.0540
H 10.4080 0.3314 -0.1070
H 9.1148 0.1298 -2.2110
H 6.6363 -0.0059 -2.1087
