56
 
C -0.3280 -1.0820 0.0030
N 0.4017 -0.4924 0.9683
H 0.7457 -0.9264 1.8529
C 0.5551 0.7836 0.5674
Cl 1.4044 2.0201 1.4749
C -0.0659 0.9382 -0.6540
Cl -0.1206 2.3911 -1.6344
N -0.6329 -0.2318 -0.9943
Ni -0.9444 -3.1417 0.0167
P -1.6497 -5.4984 0.0323
C -2.5926 -5.9196 1.6230
C -3.8971 -5.0666 1.6805
C -3.0044 -7.3844 1.8532
C -1.7462 -5.4424 2.8053
C -2.6896 -5.7413 -1.5290
C -1.7831 -5.3868 -2.7131
C -3.1145 -7.2210 -1.7292
C -3.9497 -4.8636 -1.6271
C -0.1451 -6.4651 0.2230
C 1.1063 -5.8646 0.2095
C 2.2583 -6.6453 0.0143
C 2.1867 -8.0580 -0.1886
N 3.3573 -8.8671 -0.5103
C 4.6992 -8.3113 -0.6411
C 3.2971 -10.3024 -0.7982
C 0.8978 -8.6335 -0.1167
C -0.2327 -7.8538 0.0810
H -1.1665 -0.4511 -1.8644
H -4.6854 -5.4465 1.0183
H -3.7041 -3.9921 1.4573
H -4.3828 -5.1169 2.6787
H -3.7024 -7.7585 1.0891
H -3.5639 -7.4666 2.8111
H -2.1316 -8.0478 1.9424
H -1.5171 -4.3578 2.6959
H -0.8034 -6.0148 2.8683
H -2.3090 -5.5765 3.7572
H -0.8768 -6.0311 -2.7143
H -1.4776 -4.3212 -2.6598
H -2.3175 -5.5614 -3.6749
H -2.2431 -7.9007 -1.7681
H -3.6381 -7.3609 -2.6986
H -3.8249 -7.5717 -0.9662
H -3.7089 -3.7968 -1.4514
H -4.7606 -5.1935 -0.9685
H -4.4056 -4.9708 -2.6362
H 1.1881 -4.7868 0.2676
H 3.1730 -6.0876 -0.0277
H 4.7827 -7.2329 -0.4659
H 5.0759 -8.4916 -1.6717
H 5.3793 -8.8099 0.0801
H 2.3059 -10.7691 -0.7505
H 3.9393 -10.8571 -0.0830
H 3.6676 -10.4930 -1.8294
H 0.6947 -9.6776 -0.2634
H -1.1816 -8.3606 0.0328
