25
 
C -0.3280 -1.0820 0.0030
N -1.1649 -0.0315 -0.0866
H -2.2063 -0.0581 -0.1477
C -0.3733 1.0568 -0.0480
Cl -0.9491 2.7118 -0.1030
C 0.9388 0.6429 0.0468
Cl 2.3661 1.6600 0.1027
N 0.9594 -0.7002 0.0891
Ni -0.9444 -3.1417 0.0167
N -1.5465 -5.1535 0.0300
C -0.6122 -6.1021 0.2829
C -0.9436 -7.4498 0.1884
C -2.2547 -7.8212 -0.1668
O -2.6198 -9.1209 -0.3138
C -1.7551 -10.1933 -0.2154
C -3.2053 -6.8162 -0.3952
C -2.8256 -5.4745 -0.2949
H 1.7953 -1.3221 0.1539
H 0.4002 -5.8073 0.5240
H -0.1735 -8.1852 0.3716
H -2.3078 -11.1366 -0.3937
H -1.3050 -10.2286 0.7995
H -0.9511 -10.1042 -0.9794
H -4.2218 -7.0679 -0.6727
H -3.5387 -4.6858 -0.4984
