43
 
C 0.9010 -0.6430 -0.0020
N -0.3433 -1.1371 0.1100
C -0.7104 -2.5347 0.2538
C -1.1824 -0.0830 0.0888
C -0.4368 1.0666 -0.0551
N 0.8690 0.7310 -0.1233
C 1.9694 1.6673 -0.3191
C 1.8248 3.0744 -0.3862
C 2.9596 3.8992 -0.5490
C 4.2386 3.3378 -0.6218
C 4.3760 1.9593 -0.5885
C 3.2377 1.1624 -0.4738
Ni 2.6584 -1.8814 -0.0135
N 4.3750 -3.0911 -0.0247
C 5.6309 -2.5368 -0.0406
C 5.8278 -1.0823 0.0066
C 6.7770 -3.3282 -0.0712
C 6.6639 -4.7096 -0.0492
C 7.9078 -5.5518 -0.0478
C 5.3853 -5.2815 -0.0138
C 4.2401 -4.4512 -0.0102
C 2.8707 -5.0497 0.0199
H 0.2076 -3.1686 0.2489
H -1.3761 -2.8282 -0.5851
H -1.2567 -2.6740 1.2121
H -2.2599 -0.1376 0.1698
H -0.8322 2.0713 -0.1163
H 0.8572 3.5455 -0.3227
H 2.8576 4.9735 -0.6132
H 5.1225 3.9563 -0.7279
H 5.3584 1.5139 -0.6677
H 3.2749 0.1388 -0.5303
H 4.8543 -0.6678 0.2209
H 6.2837 -0.7241 -0.9439
H 6.4841 -0.8100 0.8591
H 7.7556 -2.8590 -0.0884
H 8.8257 -4.9211 -0.0702
H 7.9224 -6.2083 -0.9407
H 7.9445 -6.1673 0.8746
H 5.2883 -6.3600 0.0109
H 2.9206 -6.1613 0.0388
H 2.3104 -4.7322 -0.8820
H 2.3294 -4.7020 0.9234
