23
 
N -1.3822 -0.1197 -0.0570
C -0.7926 0.9100 0.7165
C 0.5870 1.1503 0.6242
Cl 1.3033 2.6375 1.2700
C 1.3547 0.2474 0.0469
C 0.7944 -0.9281 -0.4507
C -0.5978 -1.0211 -0.6315
Ni -3.4738 -0.1933 -0.2747
N -5.5581 -0.3043 -0.5160
C -6.1398 -1.0016 -1.5835
C -7.4919 -0.8214 -1.8959
C -8.2808 -0.2152 -1.0344
F -9.5651 -0.0308 -1.3338
C -7.7640 0.2257 0.1836
C -6.3704 0.3070 0.3697
H -1.3707 1.5101 1.3443
H 2.3740 0.4200 -0.0264
H 1.4090 -1.7284 -0.6994
H -1.0134 -1.7905 -1.1921
H -5.5668 -1.6617 -2.1540
H -7.8817 -1.1583 -2.7946
H -8.4108 0.4996 0.9494
H -5.9710 0.8356 1.1711
