26
 
N -1.3843 -0.1045 -0.0609
C -0.6726 -1.1149 0.5704
C 0.6478 -0.9165 0.9713
C 1.3110 0.1372 0.5149
F 2.5691 0.3400 0.9059
C 0.6837 1.0107 -0.3671
C -0.7069 0.9634 -0.5376
Ni -3.4702 -0.2070 -0.2766
N -5.5551 -0.2782 -0.5240
C -6.3132 -0.9559 0.3772
C -5.6709 -1.6451 1.5569
C -7.7140 -0.9897 0.1871
C -8.2622 -0.6142 -1.0359
C -7.5143 0.0364 -1.9148
C -6.1920 0.3415 -1.5910
H -1.1238 -2.0478 0.7518
H 1.1257 -1.5743 1.6182
H 1.2544 1.7083 -0.8928
H -1.2179 1.7446 -1.0110
H -4.5982 -1.5080 1.5272
H -5.8895 -2.7039 1.5223
H -6.0563 -1.2389 2.4759
H -8.3420 -1.3141 0.9565
H -9.2528 -0.8273 -1.2722
H -7.9279 0.3152 -2.8265
H -5.6739 1.0330 -2.1808
