46
 
N -1.4401 -0.0547 -0.0417
C -0.8415 -0.2218 1.2263
C 0.4923 0.1361 1.4583
F 1.0077 0.2708 2.7022
C 1.3058 0.3468 0.3912
C 0.7994 0.1909 -0.8831
C -0.5839 0.1199 -1.0758
Ni -3.4675 -0.1878 -0.2592
P -5.9114 -0.3479 -0.5230
C -6.6356 1.3500 -0.7190
C -6.2343 2.2166 -1.7457
C -6.5203 3.5771 -1.6843
C -7.4094 4.0324 -0.7599
C -8.0104 3.1334 0.0985
C -7.5126 1.8421 0.2198
C -6.2891 -1.2203 -2.0578
C -5.3040 -1.8243 -2.8462
C -5.5606 -2.1627 -4.1632
C -6.8461 -2.2327 -4.5917
C -7.8703 -1.9909 -3.6950
C -7.5990 -1.3763 -2.4766
C -6.6527 -1.0512 0.9707
C -5.7999 -1.4615 1.9469
C -6.3197 -1.9721 3.1211
C -7.6471 -2.3502 3.1981
C -8.5031 -1.9906 2.1990
O -9.6814 -2.3145 2.2719
N -8.0053 -1.2440 1.1497
H -1.4085 -0.5423 2.0625
H 2.3249 0.6021 0.5674
H 1.4699 0.1703 -1.7036
H -0.9910 0.1957 -2.0619
H -5.6750 1.8539 -2.5599
H -6.0894 4.2802 -2.3566
H -7.6370 5.0709 -0.7409
H -8.8270 3.4539 0.6904
H -7.8261 1.2153 1.0199
H -4.3297 -1.9634 -2.5003
H -4.7806 -2.3871 -4.8543
H -7.0297 -2.5084 -5.6005
H -8.8619 -2.2199 -3.9747
H -8.3862 -0.9970 -1.8663
H -4.7518 -1.3228 1.8288
H -5.6903 -2.1006 3.9696
H -8.0243 -2.8984 4.0240
H -8.6767 -0.8164 0.4980
