34
 
N -1.4354 0.2136 -0.0520
C -0.6149 -0.8573 0.0567
C 0.7225 -0.6875 0.4403
C 1.2892 0.5783 0.4666
C 2.7160 0.7538 0.8998
C 0.5014 1.6691 0.1080
C -0.8905 1.4847 -0.0317
Ni -3.4670 -0.0489 -0.2514
N -5.5263 -0.2512 -0.4528
C -6.1540 -1.4635 -0.6702
N -5.4250 -2.7153 -0.6418
C -4.2494 -2.9164 0.1746
C -5.7898 -3.8646 -1.4575
C -7.5670 -1.4765 -0.8503
C -8.2611 -0.3088 -1.0666
C -7.6155 0.8906 -0.9063
C -6.2745 0.9091 -0.4838
H -1.0166 -1.8434 -0.0053
H 1.3277 -1.5344 0.7218
H 3.1630 -0.2134 1.2212
H 2.7465 1.4320 1.7817
H 3.3239 1.1805 0.0849
H 0.9638 2.6433 -0.0021
H -1.5015 2.3644 -0.1987
H -4.0042 -2.0659 0.7255
H -3.3457 -3.0804 -0.4280
H -4.4069 -3.7056 0.9388
H -6.6574 -3.7172 -2.0976
H -6.0184 -4.7348 -0.8176
H -4.9593 -4.1091 -2.1533
H -8.1850 -2.3528 -0.8581
H -9.3091 -0.3346 -1.3476
H -8.1783 1.7915 -1.0973
H -5.8234 1.8629 -0.3044
