31
 
P 1.0759 0.0419 -0.0499
O -0.1461 -0.9570 0.5710
C 0.3639 -2.2886 0.4122
O 0.6131 1.4755 0.7462
C 1.2055 2.5586 0.0698
O 0.7689 -0.5300 -1.6358
C 1.3979 0.2769 -2.5833
Ni 3.5359 0.0419 -0.0499
N 5.6359 0.0419 -0.0499
C 6.3018 1.2241 -0.0676
N 7.6545 1.2392 -0.1792
C 8.3669 0.0808 -0.2635
O 9.7120 0.1017 -0.4142
C 10.4383 1.2596 -0.5979
C 7.6963 -1.1439 -0.2192
C 6.3051 -1.1373 -0.1190
H 0.0252 -2.9545 1.2288
H 1.4859 -2.3910 0.4371
H 0.0228 -2.7100 -0.5594
H 0.7506 3.4996 0.4411
H 0.9910 2.5672 -1.0158
H 2.2982 2.5968 0.2667
H 1.2790 -0.2283 -3.5656
H 2.4881 0.3723 -2.3800
H 0.8699 1.2424 -2.6934
H 5.7518 2.1543 -0.0329
H 11.5132 1.0069 -0.7000
H 10.3061 1.9381 0.2712
H 10.1057 1.7736 -1.5264
H 8.2371 -2.0796 -0.2873
H 5.7540 -2.0684 -0.1137
