17
 
O -0.3280 -1.0820 0.0030
C -1.1166 -0.0550 0.1994
C -0.3540 1.0948 0.1264
C 0.9399 0.6869 -0.1408
C 0.9046 -0.6904 -0.2015
Ni -0.9157 -3.0459 0.0160
C -1.5321 -5.1056 0.0297
N -0.6857 -6.1396 -0.1349
C -1.4811 -7.2217 -0.0676
C -2.7759 -6.8043 0.1441
O -2.7758 -5.4941 0.1944
H -2.1769 -0.1171 0.4033
H -0.6973 2.1126 0.2535
H 1.8077 1.3191 -0.2741
H 1.7375 -1.3522 -0.3988
H -1.1404 -8.2436 -0.1659
H -3.6513 -7.4309 0.2508
