30
 
N 1.1430 -0.6970 0.0890
C 0.0069 -1.4186 0.0690
C 0.1405 -2.8980 0.2030
C -1.2287 -0.7542 -0.0030
C -1.2449 0.6474 -0.0652
C -0.0423 1.3600 -0.0927
C 1.1640 0.6543 -0.0218
C 2.4918 1.3376 -0.1333
Ni 2.9539 -1.7051 0.4273
N 4.7648 -2.7132 0.7655
C 5.3343 -1.9322 -0.3552
N 4.8524 -4.0753 0.6325
C 5.9770 -4.4991 1.0959
C 6.6768 -3.4637 1.7039
C 5.8580 -2.3491 1.6024
H 1.2390 -3.1641 0.2990
H -0.2985 -3.3843 -0.6926
H -0.4075 -3.2354 1.1087
H -2.1613 -1.3025 0.0165
H -2.1845 1.1842 -0.1018
H -0.0508 2.4408 -0.1708
H 2.3748 2.4381 -0.2442
H 2.9916 0.9650 -1.0557
H 3.1426 1.0890 0.7287
H 4.6813 -2.0729 -1.2417
H 6.3772 -2.1653 -0.6957
H 5.2138 -0.8296 -0.1491
H 6.3065 -5.5275 1.0315
H 7.6594 -3.5017 2.1589
H 6.1135 -1.3561 1.9665
