31
 
N -0.6790 1.1930 0.0010
C 0.6786 1.2120 0.0816
F 1.3270 2.3997 0.1530
C 1.4025 0.0146 0.0805
C 0.7158 -1.1986 0.0037
F 1.3966 -2.3710 0.0053
C -0.6761 -1.2005 -0.0743
C -1.3626 0.0151 -0.0782
F -2.7107 0.0037 -0.1484
Ni -1.6914 3.0329 0.0055
N -2.7038 4.8727 0.0100
C -4.0548 4.9212 -0.2315
N -4.7760 3.7043 -0.5336
C -4.0668 2.4360 -0.6443
C -6.1914 3.6749 -0.9052
C -4.6731 6.1971 -0.2804
C -3.9122 7.3514 -0.1173
C -2.5444 7.2568 0.1002
C -1.9533 5.9970 0.1649
H 2.4830 0.0261 0.1389
H -1.2214 -2.1343 -0.1305
H -3.1421 2.5088 -1.2224
H -4.6155 1.7786 -1.3488
H -4.0547 1.9025 0.3163
H -6.7023 4.6462 -0.9126
H -6.7520 3.0241 -0.2017
H -6.2986 3.2694 -1.9337
H -5.7171 6.3579 -0.4746
H -4.3867 8.3230 -0.1835
H -1.9487 8.1541 0.2046
H -0.8863 5.9101 0.3184
