46
 
N 1.1430 -0.6970 0.0890
C 1.1508 0.6497 0.0865
C 2.4296 1.3186 0.4510
C -0.0123 1.3474 -0.2757
C -1.1556 0.6202 -0.6360
C -1.1403 -0.7769 -0.5837
C 0.0356 -1.4286 -0.1912
C 0.1077 -2.9164 -0.0487
Ni 2.9539 -1.7051 0.4273
P 5.0752 -2.8860 0.8235
N 5.2486 -4.0413 2.2215
C 5.0532 -3.3900 3.5515
C 4.1878 -5.0937 2.2040
N 5.0293 -4.2570 -0.3566
C 5.0889 -3.7851 -1.7533
C 6.1484 -5.2295 -0.1881
N 6.2617 -1.5917 1.2209
C 7.6454 -2.0797 1.3640
C 6.2622 -0.4963 0.2270
H 3.1990 0.5210 0.6762
H 2.2662 1.9518 1.3493
H 2.7674 1.9567 -0.3910
H -0.0310 2.4290 -0.3019
H -2.0569 1.1344 -0.9455
H -2.0287 -1.3400 -0.8440
H -0.8616 -3.3956 -0.3091
H 0.3211 -3.1463 1.0177
H 0.9322 -3.3359 -0.6611
H 5.8197 -2.6344 3.8002
H 5.1189 -4.1573 4.3657
H 4.0334 -2.9431 3.6739
H 4.0359 -5.6023 1.2401
H 3.1806 -4.7048 2.4720
H 4.4744 -5.9057 2.9091
H 4.2981 -3.0437 -1.9737
H 4.9218 -4.6474 -2.4426
H 6.0892 -3.3636 -2.0135
H 6.1579 -5.7495 0.7869
H 7.1463 -4.7595 -0.3008
H 6.0353 -6.0644 -0.9164
H 7.7056 -2.9306 2.0670
H 8.2744 -1.2639 1.7933
H 8.1047 -2.3572 0.3866
H 5.2683 -0.0187 0.1584
H 6.5901 -0.8294 -0.7854
H 6.9738 0.3055 0.5429
