32
 
O -0.3280 -1.0820 0.0030
C -1.1325 -0.0525 -0.0840
C -0.3667 1.0970 -0.0546
C 0.9491 0.6850 0.0501
C 0.9194 -0.6933 0.0857
Ni -0.9157 -3.0459 0.0160
N -1.5178 -5.0577 0.0293
C -2.8519 -5.3091 -0.0659
C -3.3265 -6.6213 -0.0732
C -2.4163 -7.6723 -0.0002
C -1.0464 -7.3957 0.0768
C -0.1148 -8.4251 0.1157
C 1.2419 -8.1297 0.1801
C 1.7044 -6.7905 0.2213
C 3.1634 -6.4789 0.3086
O 3.5141 -5.3102 0.3705
C 4.2524 -7.5284 0.3387
C 0.7474 -5.7388 0.1801
C -0.6092 -6.0536 0.1020
H -2.2100 -0.1118 -0.1570
H -0.7227 2.1172 -0.1028
H 1.8272 1.3153 0.0960
H 1.7691 -1.3589 0.1627
H -3.5465 -4.4824 -0.1338
H -4.3877 -6.8223 -0.1423
H -2.7782 -8.6939 -0.0128
H -0.4345 -9.4608 0.0870
H 1.8967 -8.9813 0.1977
H 3.9085 -8.5724 0.2591
H 4.8113 -7.4486 1.2933
H 4.9493 -7.3623 -0.5079
H 1.0039 -4.6623 0.1986
