93
 
P 0.9128 -0.0404 -0.0276
C 0.0797 1.0168 -1.3179
C 0.5219 2.4913 -1.2550
C 0.1984 3.0146 -2.6520
C 0.7471 1.9260 -3.5478
C 0.5425 0.6255 -2.7551
C 0.3072 -1.7579 -0.4201
C 0.6060 -2.4344 -1.7569
C 0.1928 -3.8749 -1.4477
C 0.7878 -4.1376 -0.0760
C 0.8726 -2.7636 0.5773
C 0.4298 0.5563 1.6728
C 1.0248 -0.3383 2.7660
C 0.8711 0.4907 4.0181
C 1.2160 1.9007 3.5745
C 0.9955 1.9014 2.0545
Ni 3.3728 -0.0404 -0.0276
P 5.8328 -0.0404 -0.0276
C 6.7887 -1.4152 0.8451
C 6.4199 -1.5705 2.3706
C 4.9559 -2.0107 2.5987
C 4.6333 -3.3198 1.8572
C 5.0310 -3.2430 0.3690
C 6.5054 -2.7970 0.2018
C 6.1438 -0.0377 -1.9042
C 5.4676 1.1725 -2.6148
C 6.1742 2.5160 -2.3044
C 7.6162 2.5143 -2.7563
C 8.3503 1.3288 -2.1008
C 7.6310 -0.0137 -2.3790
C 6.2700 1.4621 0.9261
C 5.4361 2.6131 0.9018
C 4.1237 2.6641 0.1790
C 5.8971 3.8287 1.4309
C 7.1761 3.9339 1.9662
C 8.0060 2.8188 2.0014
C 7.5624 1.5952 1.4897
H -1.0290 0.9930 -1.2747
H 1.6234 2.5602 -1.1100
H 0.0105 3.0821 -0.4717
H 0.6319 4.0153 -2.8855
H -0.9026 3.0582 -2.7759
H 1.8454 2.1011 -3.6354
H 0.3341 1.9188 -4.5820
H 1.5317 0.1106 -2.7750
H -0.2108 -0.0231 -3.2389
H -0.8049 -1.7565 -0.3136
H 1.6911 -2.3860 -1.9802
H 0.0099 -2.0587 -2.6095
H 0.4793 -4.6378 -2.2016
H -0.9174 -3.8985 -1.3399
H 1.8276 -4.5158 -0.1773
H 0.1914 -4.8745 0.5077
H 1.9483 -2.5198 0.7112
H 0.3330 -2.7666 1.5340
H -0.6774 0.5794 1.7990
H 2.1010 -0.5047 2.5527
H 0.5109 -1.2974 2.9224
H 1.4597 0.1236 4.8874
H -0.2089 0.4729 4.2829
H 2.2951 2.1094 3.7563
H 0.6095 2.6389 4.1401
H 1.9931 1.8054 1.6468
H 0.4766 2.7940 1.6555
H 7.8714 -1.2139 0.7610
H 6.6012 -0.6365 2.9409
H 7.0726 -2.3519 2.8299
H 4.2948 -1.1981 2.2494
H 4.7562 -2.1641 3.6881
H 3.5482 -3.5477 1.9541
H 5.1740 -4.1613 2.3442
H 4.3621 -2.5287 -0.1745
H 4.8965 -4.2563 -0.0801
H 6.7715 -2.7702 -0.8723
H 7.1621 -3.5582 0.6872
H 5.6848 -0.9729 -2.2877
H 4.3954 1.2106 -2.3683
H 5.5138 1.0428 -3.7183
H 6.2596 2.6965 -1.2548
H 5.6189 3.3754 -2.7312
H 8.0908 3.4759 -2.4443
H 7.6370 2.4601 -3.8637
H 8.4006 1.4841 -1.0088
H 9.3923 1.3100 -2.4863
H 8.1947 -0.8656 -1.9520
H 7.6370 -0.1467 -3.4882
H 3.9250 1.8199 -0.4451
H 4.1606 3.4660 -0.5825
H 3.3470 2.9672 0.8630
H 5.2817 4.7179 1.3648
H 7.5345 4.8921 2.3211
H 9.0128 2.9157 2.3900
H 8.2739 0.7854 1.4899
