25
 
C 1.2066 0.0500 0.0372
O 0.0764 0.0405 -0.0027
Ni 3.2679 0.0020 0.0953
N 5.2701 -0.0654 0.1139
C 5.9010 -1.2684 0.0411
C 7.2986 -1.3337 0.0319
C 8.0413 -0.1601 0.0743
C 7.3822 1.0644 0.0938
C 8.1118 2.2422 0.0287
C 7.4520 3.4549 -0.0246
C 6.0402 3.5271 0.0752
C 5.3474 4.8433 0.1001
O 4.1300 4.8713 0.1957
C 6.0745 6.1649 0.0659
C 5.2906 2.3182 0.1610
C 5.9697 1.0973 0.1334
H 5.3196 -2.1759 -0.0211
H 7.8105 -2.2817 -0.0288
H 9.1248 -0.2004 0.0556
H 9.1959 2.2286 -0.0159
H 8.0956 4.3077 -0.1429
H 7.1688 6.1030 -0.0232
H 5.8771 6.7041 1.0134
H 5.7213 6.7595 -0.7990
H 4.1834 2.2738 0.2273
