65
 
P 1.0336 -0.0923 -0.0187
C 0.3904 -0.4911 1.6785
C 0.8702 -1.8797 2.1254
C 0.7734 -1.8114 3.6438
C 1.3879 -0.4664 3.9686
C 1.0830 0.4055 2.7456
C 0.4456 1.6292 -0.3497
C 1.0194 2.7053 0.5413
C 0.5976 3.9671 -0.1813
C 0.9069 3.6602 -1.6364
C 0.7554 2.1377 -1.7683
C 0.5220 -1.4865 -1.1120
C -0.9998 -1.5788 -1.2724
C -1.1386 -2.4230 -2.5339
C -0.1101 -1.8094 -3.4715
C 1.0129 -1.2891 -2.5590
Ni 3.4936 -0.0923 -0.0187
P 5.9536 -0.0923 -0.0187
N 6.8487 -0.5814 -1.4664
C 8.2880 -0.5230 -1.3688
C 8.6884 -0.0701 0.0225
C 10.2169 -0.0500 0.0845
C 8.0947 1.3862 0.2386
N 6.6212 1.5155 0.0577
N 6.6263 -1.3292 1.0049
C 8.0994 -1.1139 1.0650
H -0.7149 -0.4434 1.7945
H 1.9434 -2.0139 1.8579
H 0.2773 -2.7143 1.6965
H 1.2723 -2.6483 4.1828
H -0.2988 -1.7822 3.9275
H 2.4961 -0.5807 4.0348
H 1.0324 -0.0498 4.9371
H 2.0802 0.7449 2.3685
H 0.4791 1.2801 3.0447
H -0.6672 1.6551 -0.2516
H 2.1256 2.6096 0.5593
H 0.5958 2.7132 1.5543
H 1.0959 4.8819 0.2031
H -0.5044 4.0782 -0.0688
H 1.9818 3.8927 -1.8047
H 0.3006 4.2644 -2.3457
H 1.7404 1.7619 -2.1180
H -0.0341 1.8314 -2.4939
H 0.8926 -2.4738 -0.7584
H -1.4306 -0.5727 -1.4753
H -1.5153 -2.0238 -0.3932
H -2.1652 -2.4402 -2.9672
H -0.8270 -3.4624 -2.3029
H -0.5905 -0.9206 -3.9471
H 0.2244 -2.4844 -4.2876
H 1.1192 -0.2249 -2.8253
H 2.0056 -1.7587 -2.7144
H 6.5059 -0.0046 -2.2708
H 8.6842 0.1677 -2.1491
H 8.6799 -1.5386 -1.5957
H 10.6177 0.6393 -0.6919
H 10.6150 -1.0676 -0.1279
H 10.5632 0.2785 1.0820
H 8.5856 2.0907 -0.4709
H 8.3569 1.7266 1.2611
H 6.3715 2.0330 -0.8155
H 6.3783 -2.2661 0.6130
H 8.5920 -2.1012 0.9137
H 8.3643 -0.7768 2.0881
