55
 
N -0.3280 -1.0820 0.0030
C -0.0612 -0.3054 -1.0584
O 0.2513 0.9156 -0.6785
C 0.1837 0.9495 0.6367
C -0.1727 -0.3042 1.0817
Ni -0.9301 -3.0938 0.0163
P -1.6353 -5.4505 0.0320
C -2.6003 -5.8720 1.6034
C -3.8846 -5.0020 1.6565
C -3.0245 -7.3353 1.8298
C -1.7395 -5.4174 2.7913
C -2.5810 -5.7074 -1.5831
C -1.6244 -5.3987 -2.7411
C -3.0547 -7.1742 -1.7616
C -3.8146 -4.7998 -1.7268
C -0.1262 -6.4229 0.1353
C 1.1298 -5.8313 0.1038
C 2.2767 -6.6275 -0.0407
C 2.1950 -8.0479 -0.1642
N 3.3613 -8.8816 -0.4257
C 4.7085 -8.3443 -0.5720
C 3.2891 -10.3278 -0.6436
C 0.9019 -8.6103 -0.0701
C -0.2226 -7.8137 0.0703
H -0.0925 -0.6419 -2.0857
H 0.3661 1.8233 1.2481
H -0.3360 -0.6203 2.1035
H -4.6588 -5.3556 0.9615
H -3.6607 -3.9294 1.4576
H -4.3775 -5.0622 2.6510
H -3.7143 -7.7049 1.0564
H -3.5920 -7.4138 2.7836
H -2.1598 -8.0087 1.9368
H -1.4833 -4.3364 2.6885
H -0.8048 -6.0075 2.8516
H -2.2963 -5.5482 3.7473
H -0.7412 -6.0727 -2.7069
H -1.2844 -4.3424 -2.6920
H -2.1348 -5.5724 -3.7167
H -2.2157 -7.8934 -1.7579
H -3.5628 -7.3158 -2.7391
H -3.7991 -7.4674 -1.0053
H -3.5480 -3.7353 -1.5785
H -4.6302 -5.0829 -1.0501
H -4.2613 -4.9222 -2.7385
H 1.2214 -4.7531 0.1301
H 3.1965 -6.0792 -0.0954
H 4.8021 -7.2606 -0.4399
H 5.0860 -8.5716 -1.5926
H 5.3805 -8.8187 0.1726
H 2.2935 -10.7825 -0.5766
H 3.9247 -10.8531 0.0990
H 3.6596 -10.5683 -1.6638
H 0.6906 -9.6600 -0.1430
H -1.1753 -8.3134 0.0683
