58
 
P 1.0342 -0.0889 0.0305
C 0.3856 0.4261 1.6968
C 0.9141 -0.5489 2.7540
C 0.8062 0.2308 4.0545
C 1.2860 1.6257 3.6914
C 1.0668 1.7341 2.1754
C 0.4598 1.1714 -1.1931
C -1.0657 1.3152 -1.2316
C -1.2610 2.6003 -2.0025
C -0.1937 3.5056 -1.4096
C 0.9994 2.5972 -1.0659
C 0.5095 -1.8493 -0.1945
C -1.0111 -2.1048 -0.2459
C -1.0754 -3.4773 -0.9094
C -0.0613 -3.3729 -2.0423
C 0.9756 -2.3418 -1.5698
Ni 3.4942 -0.0889 0.0305
N 5.5942 -0.0889 0.0305
C 6.2381 1.1052 -0.0876
C 7.6347 1.1470 -0.2322
C 8.3632 2.4434 -0.4391
C 8.3475 -0.0573 -0.2223
C 7.6689 -1.2687 -0.0783
C 6.2754 -1.2655 0.0370
H -0.7179 0.5178 1.7904
H 1.9940 -0.7468 2.5672
H 0.3654 -1.5131 2.7801
H 1.3661 -0.2136 4.9081
H -0.2688 0.2991 4.3202
H 2.3813 1.7185 3.8859
H 0.7710 2.4034 4.2970
H 2.1026 1.7475 1.7516
H 0.5486 2.6714 1.8882
H 0.7503 0.8374 -2.2169
H -1.4662 1.4382 -0.2047
H -1.5949 0.4887 -1.7446
H -2.2950 3.0071 -1.9115
H -1.0354 2.4109 -3.0722
H -0.6063 3.8726 -0.4431
H 0.0597 4.3821 -2.0406
H 1.3529 2.8869 -0.0729
H 1.8703 2.7101 -1.7450
H 0.9166 -2.5154 0.5951
H -1.5303 -1.4082 -0.9188
H -1.5184 -2.0750 0.7434
H -2.0869 -3.7881 -1.2621
H -0.7051 -4.2284 -0.1832
H -0.5812 -2.9388 -2.9293
H 0.3646 -4.3517 -2.3488
H 0.9166 -1.5160 -2.3139
H 2.0267 -2.6930 -1.5374
H 5.6546 2.0169 -0.1078
H 7.6730 3.3128 -0.4074
H 8.8484 2.4252 -1.4390
H 9.1469 2.5784 0.3354
H 9.4248 -0.0558 -0.3390
H 8.2181 -2.2011 -0.0824
H 5.7347 -2.1995 0.1076
