36
 
P 1.0440 -0.0641 0.0629
C 0.1191 -0.5972 1.5362
C 0.5304 1.6552 0.1738
C 1.4816 2.6736 0.1914
C 1.0730 4.0099 0.2673
C -0.2880 4.3334 0.3166
C -1.2482 3.3223 0.2501
C -0.8437 1.9867 0.1675
C 0.7045 -1.2756 -1.1981
C -0.6135 -1.5216 -1.6333
C -0.8566 -2.4701 -2.6319
C 0.2122 -3.1728 -3.1933
C 1.5279 -2.9097 -2.7734
C 1.7838 -1.9477 -1.7769
Ni 3.5040 -0.0641 0.0629
O 5.5540 -0.0641 0.0629
C 6.3263 0.7039 0.7874
N 7.6265 0.4175 0.5671
C 7.6021 -0.5796 -0.3440
C 6.2915 -0.8675 -0.6541
H -0.9767 -0.5828 1.4216
H 0.4454 0.0219 2.4019
H 0.4508 -1.6367 1.7580
H 2.5340 2.4279 0.1373
H 1.8136 4.7955 0.2900
H -0.5979 5.3675 0.3948
H -2.3032 3.5748 0.2636
H -1.6073 1.2197 0.1001
H -1.4527 -0.9787 -1.2134
H -1.8708 -2.6624 -2.9707
H 0.0167 -3.9158 -3.9593
H 2.3419 -3.4557 -3.2277
H 2.8072 -1.7030 -1.4323
H 5.9734 1.4585 1.4769
H 8.4789 -1.0683 -0.7476
H 5.9195 -1.6172 -1.3401
