87
 
P 1.0537 0.0516 -0.0667
C 0.5996 -1.0585 -1.5413
C 1.2537 -0.6978 -2.9187
C 2.7968 -0.9068 -2.9285
C 3.1405 -2.3442 -2.5281
C 2.6128 -2.5644 -1.1589
C 1.0896 -2.4676 -1.2605
C 0.1044 -0.8594 1.5250
C 0.2489 -2.3470 2.0079
C 1.4843 -2.5561 2.8643
C 1.2639 -1.8851 4.2169
C 1.0287 -0.3851 4.0257
C -0.0765 -0.1256 2.9697
C 0.4628 1.8146 -0.6409
C -1.0450 1.6603 -0.8906
C -1.7831 1.5663 0.4690
C -1.8421 2.8994 1.1519
C -0.3995 3.3950 1.3937
C 0.5271 3.2162 0.1505
Ni 3.5137 0.0516 -0.0667
P 5.9737 0.0516 -0.0667
C 6.5996 1.6295 -0.7764
C 6.2931 2.8540 -0.1284
C 6.5645 4.0868 -0.7443
C 7.1079 4.1211 -2.0274
C 7.4109 2.9286 -2.6802
C 7.1768 1.6980 -2.0580
C 6.4700 -0.0580 1.6746
C 6.0456 -1.1703 2.4261
C 6.4370 -1.3196 3.7625
C 7.2567 -0.3616 4.3617
C 7.7081 0.7302 3.6175
C 7.3269 0.8784 2.2792
C 6.4684 -1.2985 -1.1847
C 6.1360 -1.2949 -2.5402
C 6.4353 -2.3982 -3.3538
C 7.0798 -3.5147 -2.8196
C 7.4721 -3.5127 -1.4812
C 7.1786 -2.4087 -0.6670
H -0.4962 -1.1251 -1.6599
H 0.9769 0.3170 -3.2640
H 0.8418 -1.4082 -3.6797
H 3.2911 -0.2578 -2.1604
H 3.1971 -0.7237 -3.9560
H 4.1889 -2.5348 -2.4395
H 2.7662 -3.1075 -3.2387
H 3.0949 -1.7859 -0.5463
H 2.9278 -3.5554 -0.7763
H 0.6424 -2.7428 -0.3814
H 0.7175 -3.2006 -2.0050
H -0.9250 -0.9268 1.1092
H 0.1107 -3.1966 1.3512
H -0.6461 -2.5911 2.6381
H 2.3748 -2.1524 2.3398
H 1.6086 -3.6419 3.0446
H 2.1352 -2.0692 4.8790
H 0.3741 -2.3549 4.7062
H 1.9747 0.0979 3.7272
H 0.7258 0.0413 5.0168
H -0.3368 0.9407 3.0122
H -0.9980 -0.5640 3.4386
H 1.0250 2.0038 -1.5783
H -1.1987 0.7840 -1.5142
H -1.4737 2.4969 -1.4748
H -1.2054 1.0341 1.1540
H -2.7645 1.0620 0.4356
H -2.3648 2.8005 2.1355
H -2.4509 3.5494 0.4950
H 0.0611 2.8381 2.2238
H -0.4718 4.4561 1.7325
H 1.5480 3.5733 0.3973
H 0.1233 3.9749 -0.5659
H 5.8129 2.8717 0.8427
H 6.3213 5.0199 -0.2472
H 7.2798 5.0688 -2.5254
H 7.8037 2.9533 -3.6880
H 7.4002 0.8227 -2.6295
H 5.4220 -1.9332 1.9754
H 6.1096 -2.1795 4.3345
H 7.5534 -0.4706 5.3978
H 8.3623 1.4599 4.0767
H 7.7226 1.7156 1.7289
H 5.5880 -0.4653 -2.9578
H 6.1154 -2.4027 -4.3862
H 7.2670 -4.3822 -3.4415
H 7.9835 -4.3784 -1.0735
H 7.4846 -2.4509 0.3711
