100
 
P 1.0445 0.0101 -0.0890
C 0.2134 1.4831 -0.8840
C -0.9552 2.1320 -0.4581
C -1.4652 3.2375 -1.1704
C -0.8079 3.7391 -2.2976
C 0.3708 3.1439 -2.7226
C 0.8689 2.0302 -2.0348
C 0.4027 -1.3139 -1.2150
C 0.1279 -1.0792 -2.5948
C -0.4525 -2.0670 -3.4047
C -0.7735 -3.3084 -2.8667
C -0.5233 -3.5594 -1.5169
C 0.0492 -2.5709 -0.6968
C 0.4905 -0.1008 1.6983
C -0.8889 -0.1188 2.0589
C -1.2988 -0.1017 3.4080
C -0.3533 -0.1072 4.4287
C 1.0008 -0.1864 4.1048
C 1.4212 -0.1902 2.7575
Ni 3.5045 0.0101 -0.0890
C 5.6545 0.0101 -0.0890
N 6.3778 1.1894 0.0641
C 6.0665 2.6631 0.0778
C 4.8569 3.2472 0.6198
C 3.7487 2.5189 1.3275
C 3.6169 3.0588 2.7754
C 2.4745 2.7707 0.5773
C 4.6362 4.6519 0.5586
C 5.5558 5.5220 0.0799
C 6.7446 5.0383 -0.3843
C 7.0250 3.6464 -0.4422
C 8.3279 3.3063 -1.1707
C 8.2617 3.8655 -2.6001
C 9.6023 3.8208 -0.4668
C 7.6032 0.7399 0.3928
C 7.6487 -0.6396 0.3742
N 6.4376 -1.1569 0.0446
C 6.1437 -2.6603 -0.0067
C 6.6541 -3.6154 1.0065
C 7.5875 -3.3193 2.2079
C 7.0374 -3.7384 3.5915
C 8.9235 -4.0640 1.9970
C 6.2911 -4.9900 0.9228
C 5.5078 -5.4978 -0.0848
C 5.0813 -4.6789 -1.0909
C 5.3799 -3.3079 -1.1105
C 4.7330 -2.5417 -2.2835
C 4.1893 -3.2282 -3.5635
C 3.5075 -1.9862 -1.6686
H -1.4901 1.8039 0.4038
H -2.3776 3.7168 -0.8475
H -1.2051 4.5930 -2.8393
H 0.8953 3.5480 -3.5866
H 1.7964 1.6055 -2.4089
H 0.3270 -0.1417 -3.0799
H -0.6672 -1.8700 -4.4517
H -1.2261 -4.0709 -3.4935
H -0.7885 -4.5231 -1.1046
H 0.2064 -2.7892 0.3472
H -1.6724 -0.1270 1.3160
H -2.3524 -0.0719 3.6745
H -0.6706 -0.0642 5.4695
H 1.7238 -0.2291 4.9107
H 2.4779 -0.2534 2.5553
H 3.9149 1.4359 1.3558
H 3.5370 4.1671 2.8222
H 4.5178 2.7876 3.3591
H 2.7021 2.6815 3.2748
H 2.1275 3.8256 0.5868
H 1.6490 2.2518 1.0765
H 2.7091 2.4160 -0.4442
H 3.7331 5.1295 0.9149
H 5.3277 6.5834 0.0799
H 7.4349 5.7882 -0.7403
H 8.4349 2.2246 -1.2972
H 8.1479 4.9704 -2.6134
H 7.3873 3.4271 -3.1250
H 9.1889 3.6276 -3.1544
H 9.7067 4.9255 -0.5318
H 10.4906 3.3767 -0.9689
H 9.6390 3.5172 0.6005
H 8.4250 1.3792 0.6888
H 8.5458 -1.1868 0.6203
H 7.8022 -2.2493 2.2970
H 6.8290 -4.8276 3.6644
H 6.1221 -3.1725 3.8481
H 7.8040 -3.5238 4.3730
H 8.7824 -5.1689 1.9863
H 9.6443 -3.8450 2.8138
H 9.3736 -3.7528 1.0339
H 6.6115 -5.7186 1.6573
H 5.2315 -6.5482 -0.0978
H 4.4699 -5.1361 -1.8554
H 5.4635 -1.7737 -2.6232
H 3.3292 -3.9111 -3.3685
H 4.9646 -3.7469 -4.1531
H 3.7742 -2.4214 -4.2169
H 2.8532 -2.7804 -1.2356
H 2.9589 -1.2766 -2.3101
H 4.0296 -1.5180 -0.9502
