81
 
P 0.9982 0.0134 0.0991
C 0.1948 0.1314 1.7071
C -1.1847 0.1873 1.9149
C -1.6850 0.3286 3.2179
C -0.8142 0.4096 4.3121
C 0.5622 0.3168 4.1142
C 1.0638 0.1714 2.8199
C 0.5566 1.6954 -0.4153
C 0.8799 2.8469 0.3106
C 0.5126 4.1113 -0.1810
C -0.1641 4.2342 -1.4010
C -0.4969 3.0930 -2.1273
C -0.1484 1.8318 -1.6345
C 0.5148 -1.4766 -0.8067
C -0.8461 -1.7513 -1.0776
C -1.2168 -2.8930 -1.7973
C -0.2360 -3.7630 -2.2705
C 1.1195 -3.4793 -2.0406
C 1.5008 -2.3333 -1.3091
Ni 3.4582 0.0134 0.0991
P 5.9182 0.0134 0.0991
C 6.6217 -0.8869 -1.4135
C 6.1311 -0.1477 -2.6908
C 8.1504 -1.0191 -1.5076
C 6.0014 -2.2887 -1.4971
C 6.4339 1.8287 0.2577
C 5.9018 2.3915 1.5815
C 7.9780 1.9900 0.2371
C 5.8702 2.7220 -0.8653
C 6.3509 -1.0413 1.5017
C 5.3680 -1.5754 2.3278
C 5.7198 -2.2380 3.5107
C 7.0764 -2.3896 3.9149
N 7.4434 -3.0050 5.1840
C 6.4638 -3.5254 6.1343
C 8.8230 -3.1073 5.6581
C 8.0532 -1.8680 3.0321
C 7.6928 -1.2043 1.8648
H -1.8679 0.1337 1.0859
H -2.7509 0.3872 3.3808
H -1.2037 0.5425 5.3137
H 1.2397 0.3682 4.9606
H 2.1403 0.1061 2.6888
H 1.4072 2.7661 1.2486
H 0.7573 5.0023 0.3790
H -0.4317 5.2116 -1.7865
H -1.0208 3.1874 -3.0738
H -0.4234 0.9642 -2.2239
H -1.6332 -1.0889 -0.7505
H -2.2648 -3.1026 -1.9933
H -0.5322 -4.6492 -2.8242
H 1.8659 -4.1542 -2.4366
H 2.5550 -2.0805 -1.1279
H 6.6472 0.8074 -2.8500
H 5.0295 0.0219 -2.6669
H 6.3616 -0.7183 -3.6159
H 8.6574 -0.0511 -1.6125
H 8.4266 -1.5829 -2.4237
H 8.5654 -1.5819 -0.6618
H 4.8917 -2.2237 -1.4744
H 6.3579 -2.9368 -0.6754
H 6.2859 -2.7714 -2.4624
H 6.2993 1.8353 2.4546
H 4.7911 2.3596 1.5888
H 6.2208 3.4555 1.6900
H 8.4932 1.3507 0.9754
H 8.2843 3.0352 0.4503
H 8.3895 1.7945 -0.7667
H 4.7689 2.6254 -0.9348
H 6.3204 2.5273 -1.8450
H 6.1302 3.7868 -0.6745
H 4.3217 -1.4403 2.0906
H 4.8887 -2.5825 4.0913
H 5.4136 -3.4489 5.8306
H 6.5483 -2.9715 7.0941
H 6.6591 -4.6015 6.3216
H 9.5929 -2.7000 4.9924
H 9.0835 -4.1726 5.8289
H 8.9279 -2.5525 6.6155
H 9.1129 -1.9105 3.2078
H 8.4927 -0.7835 1.2841
