96
 
P 0.9727 0.0645 -0.0714
C 0.1905 -0.3087 1.5157
C -1.1865 -0.2237 1.7010
C -1.7362 -0.4130 2.9742
C -0.9154 -0.6976 4.0715
C 0.4667 -0.7886 3.9017
C 1.0233 -0.5850 2.6306
C 0.3268 1.6933 -0.4447
C 0.7000 2.7985 0.3220
C 0.0858 4.0364 0.1065
C -0.9024 4.1720 -0.8748
C -1.2574 3.0755 -1.6650
C -0.6397 1.8374 -1.4565
C 0.5931 -1.4227 -1.0351
C -0.1539 -2.5206 -0.5735
C -0.4114 -3.6029 -1.4269
C 0.0599 -3.5973 -2.7432
C 0.7665 -2.4956 -3.2228
C 1.0262 -1.4145 -2.3766
Ni 3.4327 0.0645 -0.0714
P 5.8927 0.0645 -0.0714
C 6.4109 1.1983 1.4055
C 6.4233 0.7862 2.8497
C 6.4123 -0.6063 3.5425
C 6.6852 1.7288 3.8540
C 6.9616 3.0404 3.5840
C 7.2822 3.9725 4.7147
C 7.0215 3.4599 2.2710
C 6.7812 2.5909 1.1836
C 7.0321 3.2546 -0.1586
C 6.3983 -1.6379 0.2504
C 5.6482 -2.7048 -0.3436
C 4.3456 -2.5400 -1.1038
C 6.1371 -4.0136 -0.2740
C 7.3376 -4.3010 0.3716
C 7.8530 -5.7060 0.4311
C 8.0823 -3.2697 0.9397
C 7.6650 -1.9365 0.8592
C 8.6563 -0.9075 1.4009
C 6.4129 0.7642 -1.7530
C 5.5364 1.5925 -2.4867
C 4.2120 1.9803 -1.9767
C 5.8407 2.0457 -3.7677
C 6.9951 1.6788 -4.4214
C 7.2313 2.2048 -5.8067
C 7.8776 0.8128 -3.7886
C 7.6140 0.3350 -2.4798
C 8.6572 -0.6304 -1.9782
H -1.8219 0.0182 0.8650
H -2.8028 -0.3255 3.1107
H -1.3518 -0.8376 5.0537
H 1.0998 -1.0019 4.7593
H 2.1050 -0.6318 2.5316
H 1.4465 2.6931 1.0970
H 0.3606 4.8854 0.7162
H -1.3970 5.1244 -1.0174
H -2.0264 3.1816 -2.4217
H -0.9480 0.9884 -2.0559
H -0.5524 -2.5543 0.4271
H -0.9812 -4.4491 -1.0686
H -0.1317 -4.4409 -3.3950
H 1.1109 -2.4784 -4.2509
H 1.5625 -0.5613 -2.7778
H 6.3703 -1.5369 2.9624
H 5.7446 -0.6797 4.4265
H 7.4276 -0.6969 4.0370
H 6.7219 1.4250 4.8986
H 7.2218 3.4579 5.6998
H 6.5798 4.8298 4.7305
H 8.3251 4.3269 4.5868
H 7.2813 4.4987 2.1019
H 7.5178 4.2482 -0.0431
H 6.1428 3.5080 -0.7383
H 7.7691 2.6686 -0.7375
H 4.0047 -1.5114 -1.2057
H 3.5442 -3.1104 -0.5888
H 4.4344 -2.9238 -2.1443
H 5.5821 -4.8175 -0.7463
H 7.1862 -6.4060 -0.1150
H 7.9147 -6.0256 1.4909
H 8.8628 -5.7586 -0.0302
H 9.0274 -3.5046 1.4133
H 9.4979 -1.3568 1.9534
H 8.3031 -0.2550 2.1295
H 9.0028 -0.1492 0.7129
H 3.7790 1.0909 -1.6220
H 3.5225 2.1901 -2.8112
H 4.2779 2.8361 -1.2964
H 5.1428 2.6935 -4.2757
H 6.3983 2.8735 -6.1220
H 7.2741 1.3650 -6.5292
H 8.1661 2.7991 -5.8350
H 8.7725 0.5048 -4.3299
H 9.4521 -0.8704 -2.7203
H 8.2164 -1.6041 -1.6937
H 9.2345 -0.1322 -1.2115
