27
 
P 1.0552 0.0067 0.1001
F -0.5322 0.5025 -0.0262
F 0.8090 -1.3503 -0.8667
F 0.9308 -0.2662 1.7565
Pd 3.4526 -0.0212 0.0409
C 5.5115 -0.0259 -0.0217
N 6.2714 1.0819 -0.0362
C 5.8071 2.4581 -0.0423
C 7.5502 0.6628 -0.0396
C 7.5469 -0.7142 -0.0318
N 6.2631 -1.1406 -0.0324
C 5.7840 -2.4959 -0.0683
C 6.6886 -3.5726 -0.0837
C 6.2249 -4.8819 -0.1899
C 4.8553 -5.1368 -0.2607
C 3.9452 -4.0827 -0.2183
C 4.4036 -2.7735 -0.1315
H 4.6957 2.4862 -0.0368
H 6.1837 2.9722 -0.9532
H 6.1917 2.9770 0.8593
H 8.4228 1.3021 -0.0471
H 8.4258 -1.3417 -0.0334
H 7.7549 -3.4153 -0.0310
H 6.9335 -5.6970 -0.2256
H 4.5000 -6.1513 -0.3517
H 2.8809 -4.2723 -0.2657
H 3.6637 -2.0129 -0.1262
