20
 
P 1.1387 -0.0867 -0.0702
F -0.3362 -0.5801 0.5262
F 0.8033 1.5567 0.0481
F 0.8977 -0.8047 -1.5791
Pd 3.5427 -0.0647 -0.0605
N 5.5504 -0.0883 0.0020
C 6.2357 1.0870 -0.0292
O 5.5702 2.2669 -0.0200
C 4.1912 2.3651 -0.0003
C 7.6385 1.0667 -0.0951
C 8.3055 -0.1592 -0.1595
C 7.5804 -1.3471 -0.0931
C 6.1888 -1.2913 0.0117
H 3.8962 3.4329 0.0096
H 3.7762 1.8662 0.8909
H 3.7548 1.8839 -0.8911
H 8.2143 1.9818 -0.1267
H 9.3833 -0.1907 -0.2628
H 8.0942 -2.2989 -0.1402
H 5.6160 -2.2081 0.0686
