66
 
P 1.0366 -0.0905 -0.0216
C 0.2353 -1.5884 0.5642
C -1.1323 -1.6588 0.7786
C -1.7041 -2.8251 1.2662
C -0.9171 -3.9565 1.5601
O -1.4687 -5.0980 2.0478
C -2.8034 -5.2241 2.3838
C 0.4677 -3.8914 1.3544
C 1.0442 -2.7093 0.8673
C 0.4991 1.0462 1.2694
C 0.9025 0.9928 2.6094
C 0.3455 1.8908 3.5351
C -0.6203 2.8419 3.1322
O -1.2335 3.6794 4.0086
C -1.0565 3.6514 5.3759
C -0.9783 2.9132 1.7851
C -0.4196 2.0290 0.8671
C 0.5639 0.0131 -1.7449
C -0.7927 0.0699 -2.0982
C -1.1760 0.2304 -3.4216
C -0.2076 0.3663 -4.4294
O -0.5565 0.4877 -5.7383
C -1.8466 0.3569 -6.2242
C 1.1540 0.3711 -4.0682
C 1.5396 0.1913 -2.7278
Pd 3.4966 -0.0905 -0.0216
N 5.5966 -0.0905 -0.0216
C 6.4311 -0.8879 -0.7031
N 7.7215 -0.5774 -0.4336
C 8.9105 -1.2758 -0.8697
C 8.8196 -2.5093 -1.5498
C 9.9750 -3.2063 -1.9160
C 11.2339 -2.6850 -1.6153
C 11.3412 -1.4664 -0.9463
C 10.1924 -0.7685 -0.5718
C 7.6694 0.5036 0.3816
C 6.3533 0.7715 0.6689
H -1.7618 -0.8089 0.5938
H -2.7703 -2.8263 1.4148
H -3.0115 -6.2483 2.7478
H -3.4426 -5.0282 1.4954
H -3.0542 -4.4987 3.1893
H 1.0964 -4.7501 1.5781
H 2.1220 -2.6761 0.7299
H 1.6272 0.2647 2.9465
H 0.6553 1.8296 4.5679
H -1.7177 4.4008 5.8563
H -0.0014 3.8892 5.6217
H -1.3220 2.6459 5.7711
H -1.7090 3.6388 1.4434
H -0.7337 2.0975 -0.1658
H -1.5752 0.0116 -1.3633
H -2.2346 0.2540 -3.6453
H -1.8466 0.4638 -7.3271
H -2.5073 1.1392 -5.7932
H -2.2501 -0.6497 -5.9709
H 1.9136 0.5106 -4.8261
H 2.5885 0.2099 -2.4386
H 6.0908 -1.7112 -1.3149
H 7.8644 -2.9554 -1.7853
H 9.8930 -4.1565 -2.4277
H 12.1271 -3.2265 -1.8962
H 12.3159 -1.0610 -0.7089
H 10.3220 0.1647 -0.0460
H 8.5106 1.0591 0.7683
H 5.9696 1.5795 1.2777
