55
 
P 0.9761 0.0199 -0.0950
C 0.2070 1.6447 0.0520
C -1.1599 1.9360 -0.0296
C -1.6029 3.2554 0.1427
C -0.6933 4.2826 0.4209
F -1.1295 5.5547 0.5937
C 0.6654 3.9953 0.5318
C 1.1111 2.6874 0.3438
C 0.5762 -0.3927 -1.8075
C 1.6013 -0.6767 -2.7128
C 1.2992 -1.0821 -4.0191
C -0.0317 -1.2144 -4.4289
F -0.3202 -1.5930 -5.6988
C -1.0637 -0.9777 -3.5213
C -0.7635 -0.5815 -2.2147
C 0.5130 -0.9458 1.3419
C -0.8452 -1.2205 1.5642
C -1.2497 -1.9485 2.6818
C -0.2975 -2.4169 3.5872
F -0.7024 -3.1021 4.6871
C 1.0680 -2.1820 3.3536
C 1.4834 -1.4487 2.2209
Pd 3.4361 0.0199 -0.0950
P 5.8961 0.0199 -0.0950
N 6.7781 0.8695 1.1915
C 6.4012 0.4173 2.5494
C 8.2114 0.9420 0.9924
O 6.3781 -1.5126 0.4800
C 6.1395 -2.4548 -0.5444
O 6.2788 1.1046 -1.3558
C 5.8642 0.5368 -2.5762
H -1.8887 1.1726 -0.2158
H -2.6567 3.4816 0.0689
H 1.3741 4.7822 0.7670
H 2.1734 2.4864 0.4477
H 2.6312 -0.6097 -2.3972
H 2.0986 -1.3034 -4.7117
H -2.0961 -1.1141 -3.8257
H -1.5884 -0.4565 -1.5342
H -1.5977 -0.8738 0.8717
H -2.3041 -2.1421 2.8444
H 1.7931 -2.5685 4.0581
H 2.5459 -1.2584 2.0123
H 5.2972 0.3024 2.6564
H 6.7076 1.1782 3.3014
H 6.8918 -0.5427 2.8190
H 8.4117 1.4518 0.0298
H 8.6526 -0.0724 1.0076
H 8.6538 1.5698 1.7972
H 6.8156 -3.3255 -0.4052
H 6.3636 -2.0943 -1.5767
H 5.0937 -2.8135 -0.4745
H 5.7492 1.3529 -3.3195
H 4.8665 0.0483 -2.5157
H 6.6342 -0.1600 -2.9728
