60
 
P 1.0362 -0.0834 -0.0416
C 0.3061 1.1548 1.0692
C -1.0527 1.4831 1.1955
C -1.4586 2.4430 2.1383
C -0.5241 3.0606 2.9769
F -0.9248 3.9800 3.8909
C 0.8227 2.7207 2.8805
C 1.2334 1.7817 1.9316
C 0.6053 0.5338 -1.6802
C 1.6153 0.7591 -2.6186
C 1.2907 1.1345 -3.9283
C -0.0466 1.2817 -4.3119
F -0.3553 1.6580 -5.5778
C -1.0649 1.0180 -3.3955
C -0.7434 0.6335 -2.0897
C 0.5528 -1.6671 0.6413
C -0.8118 -1.9981 0.7015
C -1.2224 -3.2243 1.2245
C -0.2711 -4.1350 1.6857
F -0.6772 -5.3212 2.2061
C 1.0963 -3.8231 1.6043
C 1.5168 -2.5852 1.0758
Pd 3.4962 -0.0834 -0.0416
P 5.9562 -0.0834 -0.0416
C 6.7790 1.0508 -1.2608
C 6.3704 0.6656 -2.7088
C 6.2829 2.4870 -1.0391
C 6.4281 0.6623 1.5812
C 5.9815 -0.2439 2.7392
C 7.9570 0.8459 1.6681
C 6.4486 -1.7803 -0.4590
H -1.8054 1.0166 0.5915
H -2.5037 2.7047 2.2279
H 1.5486 3.1802 3.5436
H 2.2878 1.5272 1.8895
H 2.6504 0.6118 -2.3424
H 2.0777 1.2996 -4.6500
H -2.1030 1.0963 -3.7019
H -1.5590 0.3904 -1.4289
H -1.5635 -1.3120 0.3378
H -2.2791 -3.4649 1.2713
H 1.8213 -4.5458 1.9537
H 2.5804 -2.3221 0.9951
H 7.8818 1.0018 -1.1961
H 5.2627 0.6446 -2.8384
H 6.7744 -0.3212 -3.0117
H 6.7630 1.4107 -3.4382
H 5.1736 2.5402 -1.1444
H 6.7392 3.1705 -1.7861
H 6.5644 2.8629 -0.0414
H 5.9273 1.6421 1.6966
H 6.5393 -1.2084 2.7442
H 4.8962 -0.4610 2.6790
H 6.1833 0.2623 3.7094
H 8.4888 -0.1226 1.5308
H 8.2462 1.2711 2.6512
H 8.3251 1.5521 0.9004
H 6.0596 -2.0489 -1.4636
H 6.0652 -2.4927 0.2948
H 7.5587 -1.8267 -0.4887
