35
 
P 0.9497 0.0834 0.0224
C 0.2038 -1.6022 -0.1466
C -1.3143 -1.7024 -0.1242
C 0.7710 -2.2565 -1.4172
C 0.4013 0.7670 1.6375
C 0.8835 -0.0289 2.8447
C 0.8433 2.2331 1.7506
C 0.4786 0.9327 -1.5171
Pd 3.4097 0.0834 0.0224
O 5.4597 0.0834 0.0224
C 6.2172 -0.4631 0.9407
C 7.5377 -0.2603 0.5884
C 7.5189 0.4439 -0.6011
C 6.1898 0.6348 -0.9146
H 0.5907 -2.2087 0.7017
H -1.7673 -1.0927 -0.9278
H -1.7057 -1.4083 0.8696
H -1.5982 -2.7689 -0.2872
H 0.4067 -1.7462 -2.3308
H 0.4675 -3.3226 -1.4792
H 1.8847 -2.2230 -1.4070
H -0.7100 0.7504 1.6291
H 1.9837 0.0544 2.9630
H 0.5898 -1.0920 2.7534
H 0.3944 0.3773 3.7591
H 1.9516 2.3153 1.7267
H 0.4702 2.6814 2.6968
H 0.4258 2.8323 0.9118
H -0.6317 0.9719 -1.5668
H 0.8835 0.4462 -2.4210
H 0.8451 1.9789 -1.4690
H 5.8542 -0.9820 1.8174
H 8.4139 -0.5869 1.1320
H 8.3739 0.7782 -1.1736
H 5.7970 1.1484 -1.7821
