37
 
P 0.9513 0.0175 0.0856
C 0.2055 1.4779 0.9437
C -1.3126 1.5777 0.9648
C 0.7727 1.5413 2.3716
C 0.4032 0.0718 -1.6672
C 0.8859 1.2992 -2.4310
C 0.8452 -1.2130 -2.3822
C 0.4803 -1.3975 1.1290
Pd 3.4113 0.0175 0.0856
N 5.5113 0.0175 0.0856
C 6.1556 1.2158 0.0820
C 7.5479 1.2657 -0.0199
F 8.1907 2.4593 -0.0435
C 8.2674 0.0735 -0.1181
C 7.5895 -1.1479 -0.1055
C 6.1943 -1.1558 -0.0042
H 0.5923 2.3836 0.4266
H -1.7654 0.6881 1.4407
H -1.7036 1.7245 -0.0612
H -1.5970 2.4788 1.5578
H 0.4086 0.6959 2.9883
H 0.4691 2.4839 2.8735
H 1.8863 1.5153 2.3482
H -0.7081 0.0836 -1.6531
H 1.9865 1.2730 -2.5716
H 0.5913 2.2270 -1.9046
H 0.3981 1.3117 -3.4321
H 1.9535 -1.2978 -2.3946
H 0.4722 -1.2252 -3.4293
H 0.4275 -2.1077 -1.8704
H -0.6301 -1.4540 1.1578
H 0.8851 -1.3335 2.1535
H 0.8468 -2.3279 0.6480
H 5.5823 2.1317 0.1362
H 9.3457 0.0961 -0.2122
H 8.1386 -2.0766 -0.1895
H 5.6548 -2.0931 -0.0187
