83
 
P 1.0575 -0.0773 0.0267
C 0.5547 -1.3976 -1.2646
C -0.8059 -1.6707 -1.6504
C -2.0136 -1.1509 -0.9688
C -1.0994 -2.4103 -2.8077
C -0.1155 -2.9564 -3.6062
C -0.5001 -3.6559 -4.8861
C 1.2046 -2.8681 -3.1870
C 1.5704 -2.1439 -2.0195
C 3.0502 -2.2710 -1.6622
C 0.3082 -0.6142 1.7368
C 0.7616 -1.7807 2.4372
C 1.5361 -2.8815 1.8350
C 0.4367 -2.0296 3.7797
C -0.4096 -1.2158 4.4899
C -0.7259 -1.5402 5.9244
C -1.0053 -0.1529 3.8359
C -0.7117 0.1623 2.4823
C -1.5586 1.3410 1.9793
C 0.5899 1.5915 -0.5617
C -0.0596 1.9112 -1.8061
C -0.3726 1.0126 -2.9692
C -0.5038 3.2108 -2.0363
C -0.3896 4.2055 -1.0836
C -0.8735 5.5845 -1.3906
C 0.1893 3.9227 0.1439
C 0.7288 2.6560 0.4260
C 1.3362 2.5409 1.8533
Pd 3.5175 -0.0773 0.0267
C 5.6675 -0.0773 0.0267
N 6.4095 -0.4652 1.0691
C 5.8885 -0.9406 2.3350
C 4.3362 -0.9514 2.3066
C 7.7013 -0.3214 0.7001
C 7.7218 0.1590 -0.5929
N 6.4459 0.3029 -1.0004
C 5.9956 0.7794 -2.2921
C 5.1407 2.0117 -2.0885
H -1.7396 -0.6217 -0.0636
H -2.6772 -2.0050 -0.7012
H -2.5723 -0.5032 -1.6725
H -2.1297 -2.5284 -3.1198
H -1.5996 -3.6113 -5.0560
H -0.2011 -4.7192 -4.8333
H -0.0215 -3.1726 -5.7683
H 1.9567 -3.3581 -3.8037
H 3.5494 -3.0498 -2.2951
H 3.1373 -2.6920 -0.6427
H 3.6735 -1.3652 -1.7507
H 1.4664 -2.8359 0.7468
H 1.0069 -3.8267 2.1000
H 2.5376 -2.9561 2.2856
H 0.8400 -2.9016 4.2842
H -0.1870 -2.4538 6.2619
H -1.8126 -1.7375 6.0156
H -0.4294 -0.7071 6.5968
H -1.7049 0.4473 4.4118
H -2.3312 1.6416 2.7187
H -2.0971 1.1021 1.0525
H -1.0957 2.3120 1.8763
H 0.0777 0.0609 -2.9500
H 0.0798 1.3821 -3.9002
H -1.4785 0.9237 -3.1002
H -0.9764 3.4461 -2.9830
H -1.1819 5.6675 -2.4550
H -0.0348 6.2910 -1.2239
H -1.7317 5.8510 -0.7416
H 0.2258 4.7129 0.8877
H 0.9514 3.3552 2.5213
H 2.4330 2.4885 1.8791
H 1.0427 1.6940 2.4649
H 6.2700 -0.2837 3.1494
H 6.2905 -1.9651 2.5159
H 3.8934 0.0334 2.1298
H 4.0184 -1.3490 3.2970
H 3.9654 -1.5690 1.4865
H 8.5657 -0.5450 1.3126
H 8.5962 0.3861 -1.1916
H 5.4001 -0.0129 -2.7904
H 6.8721 1.0252 -2.9320
H 4.2534 1.7339 -1.4633
H 4.8114 2.3801 -3.0787
H 5.7478 2.7978 -1.5822
