40
 
P 1.0668 -0.0436 -0.0603
C 0.1407 -0.4983 -1.5557
C 0.6093 -1.5402 0.8611
C 0.5399 1.6309 0.3261
C -0.1864 1.8379 1.5159
C -0.6132 3.1201 1.8733
C -0.3175 4.2042 1.0460
C 0.4013 4.0037 -0.1387
C 0.8292 2.7187 -0.5005
Pd 3.5268 -0.0436 -0.0603
N 5.6268 -0.0436 -0.0603
C 6.3368 1.1360 -0.0947
N 5.6462 2.4099 -0.1529
C 4.1861 2.4691 -0.2234
C 6.3435 3.6973 -0.2852
C 7.7526 1.0499 -0.1544
C 8.3801 -0.1898 -0.2197
C 7.6228 -1.3519 -0.2204
C 6.2361 -1.2580 -0.1332
H -0.9540 -0.4856 -1.4351
H 0.5008 -1.4933 -1.9054
H 0.4453 0.2244 -2.3469
H -0.5037 -1.5821 0.9133
H 0.9612 -1.4019 1.9070
H 1.0150 -2.4734 0.4366
H -0.4229 1.0088 2.1739
H -1.1708 3.2739 2.7908
H -0.6460 5.1982 1.3236
H 0.6268 4.8465 -0.7763
H 1.3819 2.5728 -1.4166
H 3.7317 1.7541 -0.9127
H 3.9464 3.2981 -0.9270
H 3.7438 2.8586 0.7195
H 7.4416 3.6551 -0.3100
H 6.0733 4.3740 0.5513
H 6.0550 4.1839 -1.2427
H 8.4129 1.8956 -0.1864
H 9.4595 -0.2432 -0.2936
H 8.1091 -2.3152 -0.2992
H 5.6344 -2.1564 -0.1520
