78
 
P 0.9261 -0.0602 -0.0301
C 0.0768 1.2762 0.8414
C -1.3042 1.4570 0.7765
C -1.8965 2.5618 1.4020
C -1.1145 3.4917 2.0990
Cl -1.8724 4.8723 2.8754
C 0.2706 3.3241 2.1650
C 0.8668 2.2252 1.5330
C 0.3603 0.1221 -1.7381
C 0.7468 1.1930 -2.5667
C 0.1844 1.3248 -3.8497
C -0.7646 0.3992 -4.3022
Cl -1.5181 0.5892 -5.8772
C -1.1300 -0.6737 -3.4879
C -0.5660 -0.8136 -2.2190
C 0.4796 -1.4719 1.0086
C -0.2698 -1.3956 2.1960
C -0.6392 -2.5670 2.8687
C -0.2727 -3.8196 2.3647
Cl -0.7399 -5.2834 3.2111
C 0.4593 -3.9042 1.1795
C 0.8325 -2.7386 0.5078
Pd 3.3861 -0.0602 -0.0301
P 5.8461 -0.0602 -0.0301
C 6.5956 1.5541 -0.3976
C 6.1982 2.2650 -1.5718
C 5.1590 1.7762 -2.5563
C 6.7475 3.5263 -1.8370
C 7.6332 4.1184 -0.9430
C 7.9831 3.4575 0.2322
C 7.4777 2.1830 0.5031
C 6.4365 -0.4843 1.6544
C 6.1162 0.1372 2.8985
C 5.1835 1.2981 3.0557
C 6.7058 -0.3550 4.0853
C 7.5947 -1.4290 4.0606
C 7.8952 -2.0473 2.8558
C 7.3178 -1.5863 1.6745
C 6.2836 -0.9678 -1.5764
C 5.3672 -1.6117 -2.4807
C 3.8693 -1.6666 -2.3442
C 5.8703 -2.2966 -3.6024
C 7.2370 -2.3935 -3.8333
C 8.1314 -1.7960 -2.9540
C 7.6618 -1.0878 -1.8453
H -1.9101 0.7577 0.2224
H -2.9651 2.7010 1.3351
H 0.8809 4.0503 2.6951
H 1.9479 2.1272 1.5805
H 1.4616 1.9311 -2.2265
H 0.4658 2.1539 -4.4884
H -1.8665 -1.3913 -3.8273
H -0.8834 -1.6374 -1.5953
H -0.5917 -0.4517 2.6051
H -1.2215 -2.5006 3.7778
H 0.7301 -4.8711 0.7713
H 1.3776 -2.8288 -0.4255
H 4.6414 0.8586 -2.2502
H 5.6203 1.6258 -3.5547
H 4.3427 2.5229 -2.6384
H 6.4602 4.0670 -2.7315
H 8.0294 5.1027 -1.1545
H 8.6443 3.9402 0.9396
H 7.7663 1.7183 1.4325
H 4.8053 1.6789 2.0899
H 5.7198 2.1149 3.5888
H 4.3223 0.9865 3.6873
H 6.4852 0.1017 5.0430
H 8.0504 -1.7853 4.9771
H 8.5808 -2.8862 2.8340
H 7.5784 -2.1010 0.7596
H 3.5004 -1.3478 -1.4074
H 3.5332 -2.7243 -2.4045
H 3.3760 -1.0848 -3.1480
H 5.1942 -2.7886 -4.2941
H 7.6004 -2.9464 -4.6910
H 9.1950 -1.8887 -3.1306
H 8.3882 -0.6435 -1.1774
