48
 
P 0.9384 -0.0486 0.0619
C 0.1412 -0.8049 -1.3738
C -1.2400 -0.9101 -1.5766
C -1.7335 -1.6156 -2.6789
C -0.8573 -2.1851 -3.6079
F -1.3433 -2.8975 -4.6538
C 0.5188 -2.0147 -3.4600
C 1.0154 -1.3269 -2.3504
C 0.4887 -1.4008 1.1880
C 1.4534 -2.1509 1.8706
C 1.0540 -3.1458 2.7811
C -0.3049 -3.3932 3.0158
F -0.6906 -4.3611 3.8837
C -1.2684 -2.6255 2.3714
C -0.8747 -1.6318 1.4811
C 0.3811 1.6414 0.3263
C -0.3716 1.9237 1.4852
C -0.8463 3.2155 1.7283
C -0.5721 4.2368 0.8181
F -1.0389 5.4895 1.0482
C 0.1828 3.9647 -0.3300
C 0.6607 2.6689 -0.5767
Pd 3.3984 -0.0486 0.0619
N 5.4984 -0.0486 0.0619
C 5.9365 -0.1647 -1.3401
C 5.9786 1.2101 0.6401
C 5.9596 -1.2697 0.7376
H -1.9428 -0.4677 -0.8972
H -2.8004 -1.7291 -2.8045
H 1.2011 -2.4321 -4.1924
H 2.0914 -1.2212 -2.2463
H 2.5053 -1.9540 1.7154
H 1.7955 -3.7238 3.3132
H -2.3234 -2.7862 2.5672
H -1.6571 -1.0367 1.0533
H -0.5999 1.1474 2.2062
H -1.4288 3.4237 2.6197
H 0.3942 4.7597 -1.0308
H 1.2394 2.4658 -1.4659
H 5.5625 0.6993 -1.9298
H 5.5361 -1.0870 -1.8134
H 7.0497 -0.1724 -1.4095
H 5.5754 2.0775 0.0756
H 7.0901 1.2478 0.6544
H 5.6115 1.2942 1.6859
H 5.5416 -2.1817 0.2601
H 5.6025 -1.2567 1.7900
H 7.0719 -1.3203 0.7599
