61
 
P 1.0776 0.0200 -0.0598
C 0.4502 -0.2611 -1.8755
C 1.0810 -1.4382 -2.6830
C 0.5895 -2.7731 -2.1834
C -0.9642 -2.8296 -1.9671
C -1.6036 -1.5432 -1.3993
C -1.0634 -0.3322 -2.1320
C 0.6363 -1.4254 1.2386
C 1.1794 -2.8361 0.9720
C 2.7097 -2.6951 0.7951
C 3.2876 -2.3444 2.1804
C 2.5553 -1.1432 2.8432
C 1.0342 -1.2072 2.7159
C 0.5672 1.7767 0.2568
C 1.3826 2.9501 0.1189
C 2.8277 2.9421 -0.2034
C 0.8410 4.2254 0.3384
C -0.4674 4.3789 0.7605
C -1.2622 3.2557 0.9629
C -0.7603 1.9725 0.6956
Pd 3.5376 0.0200 -0.0598
N 5.6376 0.0200 -0.0598
C 6.2885 1.1040 0.4441
F 5.5857 2.1446 0.9456
C 7.6824 1.1404 0.4694
C 8.4004 0.0575 -0.0377
F 9.7558 0.0788 -0.0249
C 7.7172 -1.0466 -0.5556
C 6.3174 -1.0494 -0.5519
F 5.6347 -2.1070 -1.0532
H 0.8225 0.6282 -2.4330
H 2.1969 -1.3896 -2.6505
H 0.7875 -1.3755 -3.7520
H 1.2476 -2.8175 -1.3635
H 0.9276 -3.6588 -2.7546
H -1.2587 -3.6942 -1.3288
H -1.4253 -2.9781 -2.9623
H -1.3880 -1.4034 -0.3573
H -2.7099 -1.5949 -1.4473
H -1.5526 0.6199 -1.8572
H -1.2720 -0.4814 -3.2241
H -0.4551 -1.4959 1.3731
H 0.4825 -3.3075 0.2807
H 0.9969 -3.5882 1.7697
H 2.9489 -1.9224 0.0555
H 3.1943 -3.6069 0.3970
H 4.3697 -2.1084 2.1046
H 3.1856 -3.2607 2.8065
H 2.8310 -0.2171 2.3190
H 2.8452 -1.0620 3.9156
H 0.5428 -0.3105 3.1435
H 0.6348 -2.0673 3.3276
H 3.2760 2.2787 0.4930
H 3.3436 3.7997 0.2671
H 3.0420 3.1029 -1.2819
H 1.4525 5.1118 0.1987
H -0.8500 5.3747 0.9467
H -2.2732 3.3886 1.3245
H -1.4133 1.1246 0.8566
H 8.1974 2.0000 0.8799
H 8.2674 -1.8886 -0.9543
