57
 
P 1.0473 0.0880 0.0055
C 0.1746 0.5716 1.5249
C -0.9585 1.3871 1.5914
C -1.5412 1.6733 2.8388
C -0.9920 1.1630 4.0223
C 0.1407 0.3555 3.9685
C 0.7159 0.0563 2.7299
C 0.6575 1.4725 -1.1134
C 1.1103 2.7771 -0.9067
C 0.8033 3.7869 -1.8361
C 0.0445 3.5039 -2.9779
C -0.4089 2.2059 -3.2024
C -0.1038 1.1940 -2.2801
C 0.4983 -1.6136 -0.2866
C 1.2766 -2.5513 -1.0105
C 2.6707 -2.2703 -1.5009
C 0.7207 -3.8045 -1.3284
C -0.5798 -4.1321 -0.9411
C -1.3395 -3.2203 -0.2153
C -0.8096 -1.9709 0.1045
Pd 3.5073 0.0880 0.0055
N 5.6073 0.0880 0.0055
C 6.2407 1.2634 0.2052
C 7.6229 1.3467 0.0682
C 8.3869 0.1996 -0.2764
N 9.8180 0.2803 -0.5302
C 10.5759 1.5274 -0.4611
C 10.6176 -0.8614 -0.9653
C 7.6684 -1.0212 -0.4065
C 6.2821 -1.0484 -0.2704
H -1.3969 1.7843 0.6912
H -2.4239 2.2925 2.8927
H -1.4426 1.3904 4.9820
H 0.5698 -0.0385 4.8861
H 1.5982 -0.5770 2.7214
H 1.7070 3.0063 -0.0392
H 1.1587 4.7943 -1.6769
H -0.1873 4.2881 -3.6917
H -0.9910 1.9894 -4.0951
H -0.4637 0.1927 -2.4938
H 3.0192 -1.2735 -1.2998
H 2.6951 -2.3728 -2.6053
H 3.3860 -2.9742 -1.0349
H 1.2899 -4.5245 -1.9031
H -1.0041 -5.0906 -1.2125
H -2.3503 -3.4728 0.0821
H -1.4435 -1.2805 0.6437
H 5.6581 2.1502 0.4206
H 8.0296 2.3302 0.2055
H 10.0093 2.4174 -0.1624
H 11.0024 1.7548 -1.4620
H 11.4067 1.4222 0.2667
H 10.0815 -1.8130 -1.0583
H 11.4492 -1.0315 -0.2510
H 11.0426 -0.6499 -1.9701
H 8.1152 -1.9667 -0.6459
H 5.7358 -1.9712 -0.4161
