53
 
P 1.0528 -0.0434 0.0729
C 0.2994 -0.2134 -1.5573
C -0.8804 -0.9104 -1.8283
C -1.3016 -1.0694 -3.1570
C -0.5559 -0.5281 -4.2127
C 0.6065 0.1928 -3.9459
C 1.0325 0.3480 -2.6262
C 0.6697 -1.7294 0.6865
C 1.0415 -2.9250 0.0480
C 0.7067 -4.1691 0.6234
C 0.0129 -4.2326 1.8376
C -0.3657 -3.0560 2.4771
C -0.0475 -1.8176 1.9051
C 0.5708 1.5751 0.8190
C 0.9078 1.9524 2.1641
O 1.6169 1.1114 2.9727
C 1.9745 1.3739 4.2930
C 0.4669 3.2077 2.6602
C -0.2977 4.0621 1.8739
C -0.6450 3.6874 0.5823
C -0.2173 2.4626 0.0608
Pd 3.5128 -0.0434 0.0729
N 5.6128 -0.0434 0.0729
C 6.2607 1.0381 0.5452
C 5.4210 2.1461 1.0805
C 7.6644 1.0884 0.4771
C 8.3567 0.0136 -0.1010
C 7.6502 -1.0887 -0.5881
C 6.2604 -1.0996 -0.4837
H -1.4535 -1.3468 -1.0252
H -2.1999 -1.6280 -3.3723
H -0.8740 -0.6698 -5.2380
H 1.1859 0.6157 -4.7607
H 1.9521 0.8965 -2.4433
H 1.5804 -2.9003 -0.8861
H 0.9864 -5.0937 0.1360
H -0.2338 -5.1906 2.2865
H -0.9038 -3.1068 3.4193
H -0.3603 -0.9251 2.4330
H 2.5002 0.4980 4.7232
H 1.0789 1.5719 4.9274
H 2.6553 2.2519 4.3500
H 0.6969 3.5397 3.6660
H -0.6309 5.0145 2.2734
H -1.2543 4.3514 -0.0169
H -0.5205 2.2125 -0.9429
H 4.3258 1.8529 0.9922
H 5.6187 3.0590 0.4794
H 5.6954 2.3430 2.1384
H 8.2139 1.9464 0.8410
H 9.4360 0.0357 -0.1860
H 8.1682 -1.9181 -1.0543
H 5.6876 -1.9307 -0.8751
