42
 
P 0.9426 -0.0758 -0.0309
C 0.0304 1.4849 0.1241
C 0.4475 -0.6476 -1.6787
C 0.4472 -0.9601 1.4726
Pd 3.4026 -0.0758 -0.0309
P 5.8626 -0.0758 -0.0309
N 6.8622 1.2369 -0.7733
C 6.5247 1.4510 -2.2079
C 6.5133 2.5411 -0.1370
N 6.3389 0.2286 1.6771
C 5.8913 -0.8414 2.5822
C 7.8086 0.3557 1.8308
N 6.3167 -1.4599 -1.0828
C 7.7758 -1.6895 -1.0974
C 5.6816 -2.7163 -0.6319
H -1.0653 1.3822 0.1139
H 0.3738 2.1495 -0.7024
H 0.3740 1.9741 1.0650
H -0.6642 -0.6897 -1.7100
H 0.8269 -1.6815 -1.8209
H 0.8232 0.0161 -2.4785
H -0.6644 -1.0076 1.4952
H 0.8233 -0.4665 2.3871
H 0.8262 -2.0020 1.4088
H 6.7968 0.5953 -2.8506
H 7.0898 2.3300 -2.6097
H 5.4455 1.7039 -2.3644
H 6.5815 2.5444 0.9637
H 5.4730 2.8706 -0.3706
H 7.2137 3.3337 -0.4846
H 4.7942 -0.9821 2.5371
H 6.1393 -0.5630 3.6343
H 6.4162 -1.8009 2.3754
H 8.2370 1.2039 1.2674
H 8.3408 -0.5568 1.5050
H 8.0690 0.5644 2.8911
H 8.3343 -0.7775 -1.3798
H 8.0252 -2.4658 -1.8562
H 8.1527 -2.0726 -0.1222
H 4.5774 -2.6528 -0.6824
H 5.9961 -3.0052 0.3975
H 5.9858 -3.5602 -1.2971
