77
 
P 0.9992 -0.0868 -0.0496
C 0.0520 -0.2778 1.6673
C 0.3461 0.6699 2.8771
C -0.3996 1.9970 2.7209
C -1.8958 1.8833 2.4540
C -2.2163 0.8009 1.3981
C -1.4758 -0.5012 1.6810
C 0.7206 1.7185 -0.8251
C 1.4518 2.8988 -0.1559
C 2.9202 2.9172 -0.4817
C 3.1567 3.1333 -1.9481
C 2.4945 2.0191 -2.7502
C 1.0250 1.9918 -2.3933
C 0.4631 -1.7019 -0.8288
C -0.3572 -1.6718 -2.0238
C -0.8740 -0.4791 -2.7517
C -0.7917 -2.8357 -2.6402
C -0.4869 -4.0677 -2.1262
C -1.0313 -5.2913 -2.7819
C 0.3119 -4.1595 -0.9969
C 0.8122 -3.0170 -0.3335
C 1.7034 -3.3343 0.8544
Pd 3.4592 -0.0868 -0.0496
C 5.6092 -0.0868 -0.0496
N 6.3513 -0.7524 0.8621
C 5.8683 -1.5128 2.0072
C 5.0567 -0.6097 2.9368
C 7.6448 -0.5119 0.5617
C 7.6848 0.2972 -0.5435
N 6.4174 0.5649 -0.9146
C 6.0094 1.3486 -2.0596
C 6.9423 1.2296 -3.2572
H 0.4576 -1.2118 2.0513
H 1.4386 0.8035 3.0411
H -0.0287 0.2041 3.8292
H -0.0909 2.3937 1.8123
H -0.1693 2.7158 3.5416
H -2.2491 2.8694 2.0645
H -2.4221 1.6792 3.4049
H -1.9195 1.1140 0.3903
H -3.3120 0.6387 1.3901
H -1.7579 -1.3119 0.9854
H -1.7852 -0.8373 2.7054
H -0.3610 1.9125 -0.7382
H 1.4644 2.9139 0.9095
H 0.9885 3.8541 -0.5103
H 3.3263 1.9817 -0.2847
H 3.4362 3.6645 0.1458
H 4.2193 3.1550 -2.1516
H 2.7710 4.1283 -2.2275
H 2.8927 1.0033 -2.5478
H 2.6535 2.2431 -3.8307
H 0.5894 1.3773 -3.1774
H 0.6201 2.9969 -2.6657
H -0.8734 0.3925 -2.1262
H -1.9535 -0.5515 -2.9788
H -0.3428 -0.4059 -3.7342
H -1.4101 -2.7743 -3.5333
H -1.6763 -5.0352 -3.6520
H -1.6517 -5.8379 -2.0425
H -0.1916 -5.9224 -3.1295
H 0.5388 -5.1538 -0.6368
H 1.7917 -4.4346 1.0085
H 1.3078 -3.0058 1.8204
H 2.7312 -2.9543 0.6923
H 6.7330 -1.9159 2.5816
H 5.2447 -2.3559 1.6530
H 5.6846 0.2305 3.3084
H 4.6981 -1.1967 3.8073
H 4.1786 -0.1904 2.4013
H 8.5034 -0.8815 1.1063
H 8.5749 0.6568 -1.0425
H 6.0558 2.4011 -1.7450
H 5.0146 0.9959 -2.3834
H 7.9343 1.6520 -2.9976
H 6.5233 1.8372 -4.0882
H 7.0479 0.1755 -3.5866
