46
 
P 1.2750 0.0000 0.0000
N 0.3864 -1.5113 0.2372
C -1.0519 -1.4016 0.2397
C -1.4554 0.0420 0.0018
C -2.9824 0.1019 -0.0085
C -0.8632 0.9056 1.1960
N 0.6110 0.8134 1.3894
N 0.6050 0.3394 -1.5692
C -0.8678 0.4892 -1.4057
Pd 3.7350 0.0003 -0.0005
C 5.8850 0.0006 -0.0009
N 6.5899 -1.0592 -0.1299
C 6.0597 -2.3989 -0.2107
C 7.9998 -0.7523 -0.1131
C 8.0330 0.7745 -0.2520
N 6.6894 1.1633 0.1054
C 6.2741 2.4933 0.4492
C 7.2060 3.5574 0.4670
C 6.8186 4.8440 0.8562
C 5.4994 5.0935 1.2321
C 4.5647 4.0571 1.2173
C 4.9464 2.7663 0.8310
H 0.7329 -1.9597 1.1179
H -1.4471 -1.7795 1.2109
H -1.4391 -2.0704 -0.5598
H -3.3803 -0.2732 0.9608
H -3.3770 -0.5553 -0.8156
H -3.3300 1.1382 -0.1744
H -1.3492 0.5955 2.1491
H -1.1303 1.9692 1.0303
H 0.8679 0.2828 2.2529
H 0.8626 -0.4272 -2.2309
H -1.3575 -0.0997 -2.2135
H -1.1345 1.5527 -1.5761
H 4.9489 -2.3954 -0.1856
H 6.4363 -2.9957 0.6478
H 6.4008 -2.8747 -1.1541
H 8.5766 -1.2350 -0.9302
H 8.3943 -1.0665 0.8792
H 8.1668 1.0586 -1.3215
H 8.8384 1.2100 0.3741
H 8.2405 3.4054 0.1927
H 7.5445 5.6480 0.8736
H 5.2034 6.0891 1.5392
H 3.5430 4.2531 1.5153
H 4.2028 1.9877 0.8500
