61
 
P 0.9552 0.0565 -0.0693
C 0.1154 -1.3630 0.7082
C -1.0354 -1.2363 1.4871
C -1.6111 -2.3553 2.0905
C -1.0511 -3.6238 1.9238
C 0.0986 -3.7793 1.1500
C 0.6860 -2.6565 0.5455
C 0.4415 1.3054 1.1480
C 0.8304 1.3330 2.5003
C 0.2613 2.2860 3.3688
C -0.6871 3.2026 2.8967
C -1.0521 3.1927 1.5531
C -0.4879 2.2570 0.6880
C 0.4511 0.1961 -1.8057
C 0.7784 1.3333 -2.5783
O 1.4987 2.3372 -2.0131
C 1.4790 3.6601 -2.4217
C 0.3111 1.4186 -3.9092
C -0.4821 0.4076 -4.4510
C -0.8183 -0.7023 -3.6815
C -0.3524 -0.8116 -2.3708
Pd 3.4152 0.0565 -0.0693
C 5.5652 0.0565 -0.0693
N 6.3145 -0.7164 0.7357
C 5.8325 -1.7198 1.6702
C 7.5989 -0.4284 0.4520
C 7.6101 0.5462 -0.5213
N 6.3315 0.8349 -0.8478
C 5.8845 1.8181 -1.7838
C 4.6405 1.6846 -2.4228
C 4.2838 2.6267 -3.4008
C 5.0899 3.7459 -3.6533
C 6.2871 3.9101 -2.9615
C 6.6973 2.9359 -2.0561
H -1.4925 -0.2748 1.6329
H -2.4973 -2.2295 2.6917
H -1.5103 -4.4830 2.3974
H 0.5291 -4.7704 1.0285
H 1.5896 -2.8121 -0.0387
H 1.5436 0.6202 2.8902
H 0.5351 2.3101 4.4156
H -1.1462 3.9192 3.5681
H -1.7874 3.8967 1.1808
H -0.8125 2.2548 -0.3439
H 2.1912 4.2418 -1.8025
H 0.4584 4.0716 -2.2978
H 1.7656 3.7884 -3.4835
H 0.5424 2.2667 -4.5368
H -0.8478 0.4924 -5.4667
H -1.4500 -1.4760 -4.0990
H -0.6438 -1.6809 -1.7989
H 4.7188 -1.7426 1.6650
H 6.2040 -1.5013 2.6921
H 6.2133 -2.7153 1.3511
H 8.4632 -0.8940 0.9069
H 8.4884 0.9924 -0.9700
H 3.9783 0.8427 -2.1819
H 3.3765 2.4968 -3.9631
H 4.7890 4.4920 -4.3788
H 6.9070 4.7824 -3.1335
H 7.6371 3.0748 -1.5386
