72
 
P 1.0229 -0.0508 -0.0830
C 0.5751 -1.4643 0.9901
C -0.2318 -2.5370 0.5704
C -0.6524 -3.5158 1.4667
C -0.2991 -3.4376 2.8109
C 0.4974 -2.3835 3.2584
C 0.9411 -1.4057 2.3549
C 0.4706 1.6061 0.3914
C -0.2632 1.7905 1.5811
C -0.7153 3.0637 1.9487
C -0.4486 4.1617 1.1299
C 0.2706 3.9871 -0.0564
C 0.7317 2.7150 -0.4247
C 0.1041 -0.4287 -1.6351
C 0.5892 -1.7013 -2.3108
C -0.1923 -2.3368 -3.2843
C 0.2229 -3.5567 -3.8437
C 1.4280 -4.1385 -3.4571
C 2.2013 -3.5227 -2.4995
C 1.7838 -2.3149 -1.9240
Pd 3.4829 -0.0508 -0.0830
P 5.9429 -0.0508 -0.0830
O 6.8871 -0.0802 1.3553
C 6.3624 -1.1680 2.1675
C 7.0217 -1.2598 3.5493
C 4.8247 -1.1442 2.4243
O 6.5231 -1.5993 -0.5600
C 6.0950 -1.9547 -1.8355
C 6.5515 -3.3963 -2.1341
C 4.6176 -1.9596 -1.8532
O 6.6002 1.4229 -0.6463
C 6.0060 2.5780 -0.1398
C 6.4394 2.7794 1.3063
C 6.5490 3.7435 -0.9835
H -0.5861 -2.6347 -0.4312
H -1.2794 -4.3224 1.1133
H -0.6578 -4.1874 3.5043
H 0.7496 -2.3181 4.3106
H 1.5301 -0.5815 2.7418
H -0.4966 0.9571 2.2295
H -1.2769 3.2008 2.8660
H -0.8027 5.1459 1.4136
H 0.4674 4.8402 -0.6917
H 1.2809 2.5952 -1.3478
H 0.3474 0.4006 -2.3456
H -0.9867 -0.4232 -1.4719
H -1.1364 -1.9064 -3.5794
H -0.3909 -4.0665 -4.5662
H 1.7729 -5.0744 -3.8754
H 3.1240 -4.0098 -2.2153
H 2.3823 -1.8429 -1.1574
H 6.6168 -2.1354 1.6866
H 6.7902 -0.3745 4.1777
H 8.1158 -1.4079 3.4740
H 6.6106 -2.1560 4.0759
H 4.5175 -0.2406 2.9915
H 4.5204 -2.0542 2.9816
H 4.2274 -1.2157 1.5045
H 6.4880 -1.2645 -2.6090
H 6.2098 -4.0995 -1.3373
H 7.6540 -3.4482 -2.2040
H 6.1196 -3.7564 -3.0958
H 4.2946 -2.6245 -1.0182
H 4.3068 -2.2257 -2.8785
H 4.1630 -0.9930 -1.6582
H 4.8977 2.5617 -0.2523
H 7.5480 2.6843 1.3701
H 5.9636 2.0194 1.9536
H 6.1232 3.7722 1.6717
H 7.6629 3.7633 -0.9509
H 6.1682 4.7114 -0.5983
H 6.2455 3.6462 -2.0492
