50
 
P 0.9326 0.0273 -0.0687
C 0.1404 1.6015 0.3109
C -1.2281 1.8892 0.2505
C -1.6871 3.1496 0.6820
C -0.7901 4.1085 1.1762
C 0.5712 3.8230 1.2303
C 1.0307 2.5816 0.7962
C 0.4939 -0.1265 -1.8140
C 0.8694 0.7882 -2.7959
C 0.4791 0.5792 -4.1293
C -0.2789 -0.5439 -4.4869
C -0.6446 -1.4725 -3.5150
C -0.2609 -1.2669 -2.1866
C 0.4703 -1.2446 1.1486
C 0.9694 -2.5616 1.0007
O 1.8543 -2.8299 0.0029
C 2.4600 -4.0507 -0.2235
C 0.5185 -3.5773 1.8733
C -0.4124 -3.2958 2.8688
C -0.8875 -1.9961 3.0298
C -0.4464 -0.9716 2.1819
Pd 3.3926 0.0273 -0.0687
N 5.4926 0.0273 -0.0687
C 6.1318 0.9226 -0.8676
C 7.5245 0.9049 -0.9680
F 8.1647 1.7892 -1.7721
C 8.2473 -0.0470 -0.2461
C 7.5722 -0.9541 0.5755
C 6.1767 -0.8966 0.6574
H -1.9302 1.1509 -0.1058
H -2.7409 3.3864 0.6516
H -1.1447 5.0712 1.5254
H 1.2711 4.5547 1.6210
H 2.0940 2.3742 0.8701
H 1.4583 1.6512 -2.5294
H 0.7641 1.2888 -4.8909
H -0.5807 -0.6983 -5.5165
H -1.2249 -2.3486 -3.7924
H -0.5595 -2.0096 -1.4536
H 3.0856 -3.9872 -1.1358
H 1.6930 -4.8388 -0.3831
H 3.1082 -4.3239 0.6379
H 0.8636 -4.5986 1.7794
H -0.7687 -4.0928 3.5114
H -1.6148 -1.7911 3.8049
H -0.8536 0.0188 2.3207
H 5.5520 1.6365 -1.4380
H 9.3260 -0.0860 -0.3283
H 8.1239 -1.7017 1.1302
H 5.6365 -1.6052 1.2709
