73
 
P 0.9272 0.0177 -0.0662
C 0.2214 1.3895 -1.1396
C -1.2896 1.5059 -1.3400
C 0.7840 2.7643 -0.7231
C 0.3914 -1.5620 -0.8808
C 0.8680 -1.7869 -2.3177
C 0.8088 -2.7536 -0.0102
C 0.4221 0.2684 1.7251
C 0.8989 1.5615 2.3813
C -1.1003 0.1270 1.9604
Pd 3.3872 0.0177 -0.0662
C 5.5372 0.0177 -0.0662
N 6.3461 1.1141 -0.1450
C 5.7634 2.4489 -0.1471
C 6.1051 3.7003 -1.0298
C 4.8599 4.6390 -0.8389
C 4.6359 4.9909 0.6509
C 4.5521 3.7396 1.5275
C 5.7656 2.8843 1.3109
C 7.6231 0.6688 -0.0552
C 7.5966 -0.7317 -0.0393
N 6.2981 -1.1145 -0.0944
C 5.5247 -2.3276 -0.3128
C 4.8612 -1.9916 -1.6687
C 5.5374 -2.7447 -2.8140
C 5.2059 -4.2003 -2.6591
C 5.8169 -4.7340 -1.3512
C 5.4445 -3.8854 -0.1230
H 0.6618 1.2012 -2.1410
H -1.8197 1.7700 -0.4140
H -1.7078 0.5895 -1.7953
H -1.4866 2.3499 -2.0421
H 0.2854 3.1691 0.1660
H 0.5864 3.5258 -1.5060
H 1.8827 2.7194 -0.5563
H -0.7198 -1.5481 -0.9023
H 1.9597 -1.8815 -2.3806
H 0.5261 -0.9838 -2.9948
H 0.4371 -2.7444 -2.6924
H 1.9142 -2.8142 0.0736
H 0.4291 -3.7035 -0.4474
H 0.3721 -2.6653 1.0077
H 0.9030 -0.5643 2.2783
H 0.3241 2.4339 2.0446
H 1.9852 1.7014 2.2268
H 0.6899 1.5170 3.4720
H -1.6797 0.9354 1.4876
H -1.3315 0.2022 3.0463
H -1.4886 -0.8505 1.6067
H 4.7785 2.2015 -0.5992
H 6.2089 3.4895 -2.1179
H 7.0288 4.2438 -0.7069
H 3.9507 4.1023 -1.2009
H 4.9244 5.5736 -1.4307
H 3.6921 5.5595 0.7859
H 5.4864 5.6110 1.0008
H 3.6676 3.1157 1.2589
H 4.4935 4.0066 2.6003
H 5.6864 2.0080 1.9864
H 6.7208 3.4090 1.5592
H 8.5028 1.3046 -0.0280
H 8.4581 -1.3871 -0.0345
H 4.9651 -2.1914 0.6219
H 5.0489 -0.9682 -2.0630
H 3.7837 -1.9547 -1.4167
H 6.6504 -2.5877 -2.8053
H 5.1625 -2.3581 -3.7858
H 5.6101 -4.7597 -3.5281
H 4.0952 -4.2755 -2.6670
H 6.9160 -4.7378 -1.4305
H 5.4516 -5.7794 -1.2139
H 5.8983 -4.3003 0.8034
H 4.3344 -4.0601 -0.0063
