109
 
C 0.9010 -0.6430 -0.0020
N 0.4521 0.3416 -0.9596
C 1.0668 0.9666 -2.2049
C 1.4218 -0.1520 -3.1271
C 0.3516 -0.5926 -4.0814
C 0.1293 0.5134 -5.0809
C -0.4288 1.7305 -4.3322
C 0.4734 2.1321 -3.1289
C -0.7755 0.6925 -0.5772
C -1.0985 0.0546 0.5703
N -0.1228 -0.7854 1.0118
C -0.4116 -1.3869 2.4521
C -1.9410 -1.6899 2.7172
C -2.4727 -2.7907 1.7605
C -1.8245 -4.1328 2.1343
C -0.3692 -3.9041 2.2714
C 0.1927 -2.6970 3.0829
Pd 2.6584 -1.8814 -0.0135
C 4.4159 -3.1199 -0.0250
N 4.4055 -4.4631 -0.2271
C 3.3916 -5.6127 -0.2609
C 1.9884 -5.4814 -0.1780
C 1.4201 -4.2015 -0.1078
C 2.0553 -3.5793 1.1978
C 1.1182 -3.4724 -1.4143
C 1.0485 -6.5717 -0.0070
C 1.4288 -7.8541 0.0077
C 2.7485 -8.0860 -0.1313
C 3.7294 -7.0325 -0.2533
C 5.0813 -7.6363 -0.3099
C 5.3824 -8.0370 1.1612
C 5.1076 -8.4786 -1.6092
C 5.7759 -4.8260 -0.4408
C 6.6130 -3.6309 -0.5644
N 5.8010 -2.6086 -0.0391
C 6.3683 -1.3238 0.3245
C 5.5616 -0.1835 0.2243
C 4.3053 -0.1286 -0.5362
C 4.1958 -1.1702 -1.7660
C 3.2750 0.3944 0.4679
C 5.9624 1.0557 0.7401
C 7.1641 1.2142 1.3380
C 8.0613 0.1743 1.3200
C 7.7542 -1.1029 0.7779
C 8.9740 -2.0756 0.6289
C 10.3116 -1.3368 0.4024
C 9.1964 -3.1350 1.7358
H 1.9435 1.5243 -1.8475
H 1.4711 -1.0295 -2.5027
H 2.3532 0.1333 -3.6777
H -0.5792 -0.8336 -3.5223
H 0.7269 -1.5061 -4.5878
H -0.5778 0.1646 -5.8607
H 1.1023 0.7430 -5.5790
H -1.4527 1.5057 -3.9843
H -0.4858 2.5682 -5.0711
H 0.0647 3.0145 -2.5897
H 1.3719 2.5315 -3.6664
H -1.4240 1.3931 -1.0877
H -2.0418 0.2511 1.0383
H -0.0582 -0.6101 3.1629
H -2.5526 -0.7913 2.6842
H -2.0830 -2.0657 3.7596
H -2.1999 -2.5118 0.7092
H -3.5617 -2.9371 1.7910
H -1.9855 -4.8821 1.3087
H -2.1667 -4.5677 3.0845
H -0.2989 -3.4637 1.3183
H 0.1340 -4.8883 2.4238
H 1.2935 -2.5454 3.2041
H -0.0297 -2.8942 4.1448
H 0.3711 -4.4624 -0.0600
H 2.9428 -3.0980 1.6065
H 2.0641 -4.3294 2.0140
H 1.5060 -2.6894 1.2564
H 1.9411 -2.8972 -1.7557
H 0.2220 -2.8056 -1.2926
H 0.8444 -4.1901 -2.2243
H -0.0226 -6.4369 0.1541
H 0.7013 -8.6551 0.1381
H 3.0038 -9.1380 -0.1103
H 5.9590 -7.0843 -0.5180
H 4.5058 -8.4128 1.7401
H 5.6201 -7.0930 1.7188
H 6.2520 -8.6969 1.2722
H 4.5074 -9.4037 -1.6003
H 6.1386 -8.6842 -1.9459
H 4.6647 -7.8349 -2.4216
H 5.9073 -5.3264 -1.4245
H 6.0987 -5.3325 0.4960
H 6.8726 -3.3516 -1.6121
H 7.4917 -3.9053 -0.0087
H 4.4712 0.7316 -1.2272
H 3.8306 -2.1850 -1.8634
H 5.1366 -1.3288 -2.3335
H 3.3973 -1.0457 -2.3820
H 3.3527 1.3436 1.0410
H 2.5810 0.7893 -0.1857
H 3.0358 -0.3578 1.2351
H 5.3248 1.9280 0.6689
H 7.4160 2.1819 1.7452
H 9.0167 0.4231 1.7287
H 8.9073 -2.5402 -0.3732
H 10.6523 -0.7882 1.3008
H 10.2171 -0.6409 -0.4612
H 11.1195 -2.0599 0.1634
H 9.3997 -2.6572 2.7125
H 10.0894 -3.7481 1.4644
H 8.3695 -3.8562 1.8752
