37
 
C 0.9010 -0.6430 -0.0020
N -0.3880 -1.0643 -0.0311
C -0.9225 -2.4126 -0.0729
C -1.1538 0.0417 -0.0159
C -0.3271 1.1391 0.0267
N 0.9484 0.7047 0.0353
C 2.1378 1.5380 0.0805
Pd 2.6584 -1.8814 -0.0135
C 4.4159 -3.1199 -0.0250
N 5.6600 -2.6545 0.0046
C 5.9983 -1.2422 0.0555
C 4.7067 -0.3731 0.0614
C 6.4636 -3.7414 -0.0176
C 5.6532 -4.8686 -0.0615
N 4.3727 -4.4500 -0.0635
C 3.1497 -5.2308 -0.1001
C 1.9256 -4.2997 -0.0863
H -0.1235 -3.1258 -0.0697
H -1.5118 -2.5661 -0.9999
H -1.5495 -2.6060 0.8210
H -2.2365 0.0444 -0.0335
H -0.6371 2.1754 0.0503
H 1.8637 2.6130 0.1086
H 2.7492 1.3570 -0.8257
H 2.7166 1.3030 0.9964
H 6.6311 -0.9944 -0.8254
H 6.5978 -1.0524 0.9737
H 4.0876 -0.5394 -0.8290
H 5.0346 0.6872 0.1003
H 4.0591 -0.5933 0.9190
H 7.5457 -3.7261 -0.0029
H 5.9696 -5.9041 -0.0891
H 3.1204 -5.9028 0.7849
H 3.1391 -5.8531 -1.0215
H 1.8983 -3.6633 0.8115
H 1.0312 -4.9558 -0.1061
H 1.9094 -3.6197 -0.9526
