60
 
C 0.9021 -0.6461 -0.0059
N 0.4965 0.1191 1.0299
C 1.2176 0.3026 2.2960
C 2.5293 -0.5056 2.2695
C 1.5404 1.7852 2.5316
C -0.6488 0.7156 0.6182
C -0.9246 0.2944 -0.6611
N 0.0551 -0.5440 -1.0463
C 0.1390 -1.2545 -2.3190
C 1.4140 -2.0941 -2.3420
C -1.0784 -2.1551 -2.4931
Pd 2.6526 -1.8837 -0.0235
P 4.6578 -3.2940 -0.0222
N 6.1787 -2.3728 -0.1873
C 6.1182 -1.6146 -1.4523
C 6.6153 -1.5255 0.9179
O 4.5492 -4.2134 -1.3899
C 3.9349 -5.4097 -1.1993
C 2.8135 -5.6885 -1.9882
C 2.1029 -6.8792 -1.8326
C 2.5219 -7.8292 -0.9054
C 3.6516 -7.5894 -0.1223
C 4.3687 -6.3737 -0.2277
C 5.5525 -6.1859 0.6817
C 6.4973 -7.2374 0.7485
C 7.6526 -7.1145 1.5242
C 7.8558 -5.9768 2.2988
C 6.9103 -4.9600 2.3067
C 5.7860 -5.0170 1.4871
O 5.0097 -3.9048 1.4730
H 0.5847 -0.0659 3.1291
H 3.1810 -0.1660 1.4371
H 2.3200 -1.5850 2.1344
H 3.0763 -0.3769 3.2287
H 2.1857 2.1733 1.7120
H 2.0717 1.9234 3.4958
H 0.5985 2.3717 2.5589
H -1.2455 1.4168 1.1845
H -1.7791 0.5778 -1.2620
H 0.1549 -0.5183 -3.1540
H 1.4013 -2.8098 -1.4962
H 2.2979 -1.4367 -2.2410
H 1.4818 -2.6466 -3.3017
H -1.0912 -2.8548 -1.6256
H -1.0323 -2.7166 -3.4492
H -2.0106 -1.5467 -2.4970
H 5.8927 -2.2902 -2.2884
H 7.0885 -1.1400 -1.6998
H 5.3155 -0.8480 -1.4499
H 6.6540 -2.1122 1.8520
H 6.0015 -0.6309 1.0070
H 7.6299 -1.1406 0.6763
H 2.4756 -4.9583 -2.7105
H 1.2215 -7.0642 -2.4319
H 1.9645 -8.7519 -0.7879
H 3.9423 -8.3491 0.5964
H 6.3731 -8.1394 0.1574
H 8.3998 -7.8979 1.5195
H 8.7572 -5.8629 2.8833
H 7.0830 -4.0690 2.8937
