62
 
C 0.9010 -0.6430 -0.0020
N -0.4370 -0.9951 -0.0086
C -0.8461 -2.4100 0.0352
C -0.4644 -2.8280 1.4727
C -1.6685 -2.6955 2.4338
C -2.6810 -3.7673 2.0672
C -3.2576 -3.4418 0.6875
C -2.1499 -3.2249 -0.3704
C -1.1192 0.1559 0.2109
C -0.2021 1.2093 0.2515
N 1.0403 0.6990 0.0861
C 2.3654 1.3262 -0.0982
C 2.8344 0.9298 -1.5237
C 1.9600 1.6310 -2.5847
C 2.2458 3.1284 -2.5235
C 1.8405 3.6791 -1.1481
C 2.4841 2.8825 0.0129
Pd 2.6584 -1.8814 -0.0135
N 4.3750 -3.0911 -0.0247
C 5.3231 -2.8535 0.9108
C 5.0297 -1.8335 1.9529
C 6.4740 -3.6528 0.9689
C 6.6606 -4.6617 0.0148
C 7.8965 -5.5154 0.0352
C 5.6760 -4.8685 -0.9612
C 4.5109 -4.0816 -0.9488
C 3.4814 -4.2160 -2.0279
H -0.2596 -2.7192 -0.8532
H 0.3325 -2.1795 1.8950
H -0.0806 -3.8600 1.4657
H -2.1507 -1.6868 2.3917
H -1.3307 -2.8642 3.4750
H -3.5005 -3.8150 2.8175
H -2.1614 -4.7546 2.0794
H -3.8826 -2.5345 0.7565
H -3.9139 -4.2977 0.3853
H -2.6020 -2.9856 -1.3560
H -1.7403 -4.2615 -0.4910
H -2.1880 0.2363 0.3716
H -0.4355 2.2581 0.3890
H 3.0399 0.8821 0.6683
H 2.7630 -0.1662 -1.6717
H 3.8977 1.2071 -1.6800
H 0.8730 1.4412 -2.4162
H 2.2099 1.2488 -3.5948
H 1.6907 3.6626 -3.3256
H 3.3331 3.2804 -2.7084
H 0.7388 3.6430 -1.0633
H 2.1542 4.7477 -1.0898
H 2.1229 3.2632 0.9912
H 3.5750 3.1046 -0.0360
H 4.0294 -1.3465 1.7050
H 5.8409 -1.0825 1.9861
H 5.0073 -2.3608 2.9420
H 7.2072 -3.4997 1.7517
H 8.5577 -5.2526 0.8888
H 8.4697 -5.3735 -0.9053
H 7.6138 -6.5847 0.1327
H 5.8220 -5.6252 -1.7241
H 3.7651 -5.0026 -2.7620
H 3.4170 -3.2538 -2.5852
H 2.4907 -4.4415 -1.5909
