57
 
C 0.9010 -0.6430 -0.0020
N -0.3440 -1.0196 -0.0004
C -0.9701 -2.2500 -0.4236
C -1.2423 -1.7885 -1.8623
C -0.2182 -2.4162 -2.8015
C -0.6044 -3.8728 -2.9224
C -0.4746 -4.5616 -1.5565
C -1.1960 -3.8067 -0.4302
C -1.0491 0.1138 0.3066
C -0.1776 1.1792 0.4032
N 1.0528 0.6873 0.1846
C 2.3761 1.3250 -0.0095
C 2.8584 0.9627 -1.4453
C 1.9809 1.6599 -2.5066
C 2.2120 3.1673 -2.4148
C 1.7931 3.6769 -1.0275
C 2.4686 2.8811 0.1183
Pd 2.6584 -1.8814 -0.0135
C 4.4159 -3.1199 -0.0250
N 4.7025 -4.1924 -0.8155
C 3.9961 -4.7228 -1.9764
C 5.9246 -4.6233 -0.4308
Cl 6.8242 -5.9472 -1.1620
C 6.3616 -3.8440 0.6072
Cl 7.8623 -4.0713 1.4986
N 5.4325 -2.8958 0.8438
C 5.4444 -1.9315 1.9397
H -1.6015 -2.2327 0.4703
H -1.1119 -0.6945 -2.0487
H -2.2876 -1.9983 -2.0926
H 0.8357 -2.2929 -2.4311
H -0.2899 -1.9151 -3.7877
H 0.0426 -4.3691 -3.6707
H -1.6575 -3.9039 -3.2868
H 0.5892 -4.6027 -1.2748
H -0.8793 -5.5974 -1.6428
H -1.0315 -4.3481 0.5287
H -2.3107 -3.8908 -0.6219
H -2.1326 0.1624 0.3814
H -0.4385 2.2167 0.5615
H 3.0652 0.8688 0.7351
H 2.8215 -0.1328 -1.6084
H 3.9165 1.2692 -1.5925
H 0.9012 1.4264 -2.3553
H 2.2595 1.3097 -3.5223
H 1.6342 3.6988 -3.2038
H 3.2916 3.3673 -2.6002
H 0.6933 3.6027 -0.9422
H 2.0705 4.7544 -0.9513
H 2.1053 3.2379 1.1034
H 3.5534 3.1293 0.0604
H 3.0587 -4.1703 -2.1758
H 3.8098 -5.8073 -1.8469
H 4.6599 -4.6058 -2.8703
H 6.3584 -2.0524 2.5622
H 4.5778 -2.1327 2.6107
H 5.3908 -0.8987 1.5545
