73
 
C 1.0240 -0.6530 -0.0550
N 0.9976 0.6159 0.2416
C 2.0929 1.4814 0.5168
C 3.3317 0.7084 0.4416
C -0.3299 1.1613 0.3302
C -1.1800 0.1223 -0.3320
N -0.3583 -1.0628 -0.2720
C -0.9374 -2.3876 -0.4721
C -2.4645 -2.4300 -0.6287
Pd 2.7802 -1.8697 -0.2955
C 4.5364 -3.0865 -0.5360
N 4.5495 -4.4079 -0.5679
C 3.5055 -5.4181 -0.2939
C 2.1235 -5.2374 -0.5437
C 1.6195 -4.0105 -1.1748
C 1.1637 -6.2432 -0.1898
C 1.5636 -7.4459 0.4113
C 0.6385 -8.5556 0.8441
C 2.8958 -7.6427 0.6495
C 3.8466 -6.6823 0.3212
C 5.2110 -7.0628 0.7453
C 5.9116 -4.8272 -0.8221
C 6.6206 -3.6262 -1.2783
N 5.8802 -2.5755 -0.6797
C 6.4107 -1.2484 -0.5166
C 7.3741 -0.6983 -1.4318
C 8.0308 -1.4043 -2.5981
C 7.7526 0.6428 -1.3175
C 7.2685 1.4531 -0.3047
C 7.6540 2.9042 -0.2579
C 6.4450 0.8956 0.6699
C 6.0226 -0.4531 0.5901
C 5.2023 -1.0396 1.7197
H 1.9805 1.8876 1.5544
H 2.1033 2.3358 -0.1926
H 3.1101 -0.0174 1.2113
H 4.0937 1.4448 0.7131
H 3.5265 0.1537 -0.4971
H -0.4524 2.1456 -0.1709
H -0.5779 1.2471 1.4136
H -1.3037 0.3688 -1.4116
H -2.1642 0.0671 0.1742
H -0.7206 -3.0028 0.4286
H -0.5569 -2.8120 -1.4121
H -2.9802 -2.0201 0.2651
H -2.7854 -3.4893 -0.7344
H -2.7806 -1.8801 -1.5398
H 2.3517 -3.3427 -1.6109
H 1.1656 -3.4956 -0.3386
H 0.9360 -4.3083 -2.0037
H 0.1048 -6.0984 -0.3809
H -0.4232 -8.3449 0.6216
H 0.7509 -8.7153 1.9424
H 0.9350 -9.5087 0.3476
H 3.1993 -8.5712 1.1256
H 5.2978 -8.0195 1.2874
H 5.5028 -6.2811 1.4749
H 5.8198 -7.2009 -0.1658
H 6.0002 -5.6013 -1.6186
H 6.4201 -5.0617 0.1244
H 6.4554 -3.5623 -2.3765
H 7.6781 -3.6966 -0.9286
H 8.2516 -2.4683 -2.5265
H 9.0941 -1.0882 -2.6310
H 7.5033 -1.1654 -3.5383
H 8.4356 1.0642 -2.0455
H 8.3531 3.1667 -1.0828
H 8.1439 3.1364 0.7073
H 6.7464 3.5355 -0.3761
H 6.1264 1.5313 1.4897
H 4.8878 -0.2505 2.4446
H 5.7447 -1.8108 2.2854
H 4.3162 -1.5577 1.3256
