42
 
C 0.9010 -0.6430 -0.0020
N -0.3379 -1.1311 -0.0081
C -0.6649 -2.5519 -0.0025
C 0.6460 -3.4123 0.0310
C -1.5788 -2.8439 1.1981
C -1.1638 -0.0579 -0.0247
C -0.3850 1.0840 -0.0061
N 0.9050 0.6988 0.0151
C 2.0940 1.5324 0.0577
C 2.0841 2.4366 1.2989
C 3.3169 0.6133 0.0324
Pd 2.6584 -1.8814 -0.0135
N 4.3750 -3.0911 -0.0247
C 5.6608 -2.6179 -0.2213
C 5.9652 -1.2033 -0.4964
C 6.7513 -3.4869 -0.2897
C 6.5493 -4.8491 -0.1701
C 5.2583 -5.3340 0.0196
C 4.1794 -4.4377 0.0868
H -1.2368 -2.7840 -0.9288
H 1.2685 -3.2017 0.9140
H 1.2815 -3.2306 -0.8501
H 0.3603 -4.4828 0.0352
H -1.0631 -2.6039 2.1514
H -1.8988 -3.9051 1.2015
H -2.5015 -2.2208 1.1431
H -2.2451 -0.0901 -0.0389
H -0.7284 2.1113 -0.0013
H 2.1096 2.1821 -0.8459
H 2.0605 1.8323 2.2297
H 1.1919 3.1009 1.2852
H 2.9842 3.0879 1.3095
H 3.3790 -0.1169 0.8507
H 4.2321 1.2449 0.0125
H 3.2284 -0.0145 -0.8637
H 5.0453 -0.7329 -0.5653
H 6.4190 -1.0840 -1.5031
H 6.5941 -0.7342 0.2851
H 7.7494 -3.1017 -0.4758
H 7.3951 -5.5201 -0.2476
H 5.0989 -6.4000 0.0988
H 3.1799 -4.8244 0.2189
