53
 
P 1.0787 -0.0075 0.0612
C 0.3658 1.7308 0.0671
C -1.1453 1.9374 -0.0251
C 0.9128 2.5569 1.2491
C 0.5472 -0.7346 -1.5592
C 1.0513 -0.0155 -2.8114
C 0.9515 -2.2127 -1.6190
C 0.5872 -0.9250 1.6212
C 1.0650 -0.3184 2.9395
C -0.9329 -1.1866 1.7157
Pd 3.5387 -0.0075 0.0612
C 5.6887 -0.0075 0.0612
N 6.4415 1.0535 -0.1987
C 5.9061 2.3698 -0.5127
C 4.3435 2.3521 -0.4788
C 7.7202 0.6270 -0.0995
C 7.6934 -0.7244 0.2329
N 6.4006 -1.0981 0.3284
C 5.8243 -2.3990 0.6547
C 4.2700 -2.3543 0.6202
H 0.8093 2.2038 -0.8339
H -1.6760 1.5735 0.8670
H -1.5577 1.4904 -0.9478
H -1.3467 3.0339 -0.0621
H 0.4099 2.3227 2.1955
H 0.7243 3.6397 1.0947
H 2.0035 2.4219 1.3732
H -0.5639 -0.7045 -1.5746
H 2.1568 -0.0628 -2.8863
H 0.7065 1.0355 -2.8409
H 0.6230 -0.5226 -3.7082
H 2.0520 -2.3226 -1.6043
H 0.5686 -2.6835 -2.5505
H 0.5191 -2.7728 -0.7627
H 1.0735 -1.9184 1.5341
H 0.4884 0.5736 3.2204
H 2.1504 -0.1046 2.9071
H 0.8644 -1.0363 3.7644
H -1.5132 -0.2600 1.8515
H -1.1627 -1.8105 2.6076
H -1.3161 -1.7252 0.8244
H 6.2753 2.6763 -1.5166
H 6.3008 3.0984 0.2314
H 3.9036 1.6503 -1.1969
H 4.0047 3.3834 -0.7146
H 3.9665 2.0429 0.4997
H 8.6011 1.2379 -0.2510
H 8.5445 -1.3752 0.3905
H 6.1725 -2.6988 1.6670
H 6.1941 -3.1505 -0.0769
H 3.8550 -1.6316 1.3370
H 3.8916 -3.3619 0.8842
H 3.9032 -2.0742 -0.3761
