51
 
C 1.0240 -0.6530 -0.0550
N 0.3373 -0.2293 -1.0389
C 0.6949 -0.4330 -2.4283
C 1.9808 -1.2794 -2.5971
C -0.7966 0.5450 -0.5733
C -0.8379 0.2440 0.9359
N 0.4800 -0.2755 1.1843
C 1.0837 -0.4251 2.4931
C 2.5086 -0.9884 2.4186
Pd 2.7802 -1.8697 -0.2955
P 4.7896 -3.2619 -0.5706
C 5.6598 -3.2568 -2.1652
C 5.9929 -2.5884 0.5925
C 6.5084 -3.4208 1.6063
C 7.4268 -2.9216 2.5369
C 7.8394 -1.5904 2.4615
C 7.3450 -0.7634 1.4473
C 6.4256 -1.2599 0.5127
C 4.2877 -4.9904 -0.4689
C 2.9642 -5.3482 -0.1933
C 2.6178 -6.7003 -0.0602
C 3.5885 -7.6978 -0.2072
C 4.9109 -7.3475 -0.4826
C 5.2616 -6.0004 -0.6070
H 0.8348 0.5640 -2.9020
H -0.1475 -0.9425 -2.9442
H 2.8426 -0.8242 -2.0869
H 2.2136 -1.3471 -3.6774
H 1.8431 -2.2960 -2.1926
H -1.7622 0.2779 -1.0527
H -0.5625 1.6193 -0.7471
H -1.5471 -0.5924 1.1358
H -1.1160 1.1341 1.5384
H 0.4507 -1.0788 3.1288
H 1.1256 0.5823 2.9686
H 2.5001 -2.0176 2.0217
H 2.9284 -1.0103 3.4488
H 3.1529 -0.3286 1.8005
H 5.9228 -2.1999 -2.3965
H 4.9207 -3.5614 -2.9421
H 6.5560 -3.8935 -2.2092
H 6.2031 -4.4570 1.6848
H 7.8163 -3.5636 3.3192
H 8.5428 -1.2009 3.1877
H 7.6729 0.2653 1.3893
H 6.0497 -0.6102 -0.2645
H 2.2099 -4.5851 -0.0614
H 1.5974 -6.9776 0.1652
H 3.3188 -8.7413 -0.1012
H 5.6650 -8.1190 -0.5903
H 6.2974 -5.7511 -0.8025
