51
 
C 2.3270 0.0340 0.0000
N 1.5420 1.1411 0.0078
C 2.0439 2.5137 0.0107
C 1.6486 3.2768 1.2884
C 2.1651 2.6399 2.5869
C 3.6909 2.5766 2.6334
C 0.2620 0.6766 0.0108
C 0.2926 -0.6911 -0.0112
C -0.8727 -1.4691 -0.0253
C -2.1045 -0.8060 -0.0110
C -2.1521 0.6020 0.0117
C -0.9625 1.3643 0.0194
N 1.5747 -1.0958 -0.0287
C 2.0549 -2.4636 -0.1032
C 2.9164 -2.7320 1.0970
C 3.4931 -4.1506 1.1214
C 2.3851 -5.2035 1.1951
Pd 4.4769 0.0580 0.0014
O 6.5267 0.0810 0.0028
C 6.9597 -1.2322 0.1952
C 8.4857 -1.2627 0.1871
C 6.4917 -1.7189 1.5590
H 1.6452 3.0481 -0.8759
H 3.1564 2.4935 -0.0878
H 0.5454 3.3507 1.3558
H 2.0469 4.3119 1.2171
H 1.7408 1.6201 2.7118
H 1.8137 3.2624 3.4398
H 4.0875 1.9205 1.8311
H 4.0196 2.1585 3.6065
H 4.1145 3.5973 2.5172
H -0.8555 -2.5495 -0.0458
H -3.0206 -1.3853 -0.0205
H -3.1166 1.0925 0.0196
H -1.0232 2.4412 0.0284
H 2.6550 -2.5969 -1.0289
H 1.2035 -3.1589 -0.1360
H 2.3443 -2.5474 2.0384
H 3.7034 -1.9777 0.9521
H 4.1479 -4.2546 2.0148
H 4.1128 -4.3198 0.2154
H 1.7513 -5.0236 2.0901
H 2.8213 -6.2194 1.2446
H 1.7479 -5.1756 0.2889
H 6.5586 -1.8685 -0.6232
H 8.8824 -0.6345 1.0175
H 8.8736 -0.8668 -0.7721
H 8.8482 -2.3032 0.3305
H 6.9031 -1.1110 2.3879
H 6.7235 -2.7957 1.7070
H 5.4373 -1.5604 1.6422
