84
 
C 1.0240 -0.6530 -0.0550
N 0.9794 0.6566 -0.2289
C 2.0047 1.7211 -0.4662
C 3.2695 1.5766 -1.1409
C 3.7732 0.3052 -1.7114
C 4.1093 2.7102 -1.3796
C 3.7443 3.9951 -0.9707
C 4.5175 5.2460 -1.2773
C 2.5925 4.1508 -0.2642
C 1.7524 3.0776 -0.0078
C 0.5776 3.4875 0.7715
C -0.4140 1.0414 -0.0587
C -1.2371 -0.1640 -0.1760
N -0.3368 -1.1772 0.2514
C -0.8364 -2.5197 0.5485
C -0.1229 -3.6065 0.1321
C 0.9764 -3.3580 -0.6990
C -0.3895 -4.9123 0.5369
C -1.4614 -5.2022 1.3188
C -1.6737 -6.6261 1.7379
C -2.3176 -4.1634 1.6599
C -2.0307 -2.8255 1.2797
C -3.0131 -1.7980 1.6961
Pd 2.7802 -1.8697 -0.2955
P 4.7896 -3.2619 -0.5706
O 5.1768 -4.8390 0.1393
C 4.1342 -5.8164 -0.1890
C 4.0539 -7.1527 0.5629
C 2.7801 -5.3365 0.0739
O 4.9477 -3.8260 -2.1996
C 5.1208 -2.7893 -3.1433
C 6.3438 -1.9040 -2.8552
C 5.3810 -3.4099 -4.5349
O 6.0286 -2.4463 0.3128
C 5.7297 -2.2937 1.6791
C 6.9311 -1.6332 2.3973
C 4.5105 -1.3959 1.8643
H 2.9796 -0.4280 -1.7660
H 4.6550 -0.0148 -1.1148
H 4.0878 0.4763 -2.7616
H 5.0337 2.6053 -1.9344
H 5.4468 5.0340 -1.8344
H 4.7513 5.7885 -0.3349
H 3.8754 5.9191 -1.8964
H 2.3270 5.1513 0.0739
H 0.5377 4.5288 1.1282
H 0.5903 2.8520 1.6820
H -0.2250 3.4673 0.0256
H -0.8077 1.7149 -0.8455
H -0.5800 1.3372 0.9985
H -1.5059 -0.3731 -1.2364
H -2.1359 0.0583 0.4055
H 0.9605 -2.5152 -1.4043
H 1.0574 -4.1548 -1.4550
H 1.6113 -3.2316 0.2214
H 0.2165 -5.7371 0.2613
H -0.8497 -7.2967 1.3900
H -2.6138 -6.9922 1.2897
H -1.6912 -6.6880 2.8437
H -3.1971 -4.4016 2.2345
H -3.8246 -2.2265 2.3089
H -3.5071 -1.4242 0.7732
H -2.4946 -1.0133 2.2828
H 4.2016 -6.0485 -1.2745
H 3.7714 -7.0354 1.6394
H 4.9610 -7.7324 0.4124
H 3.2031 -7.7559 0.1194
H 2.5322 -5.0611 1.1395
H 2.0509 -5.9902 -0.4213
H 2.8221 -4.5637 -0.6014
H 4.1754 -2.2063 -3.1880
H 7.2867 -2.4836 -2.9706
H 6.3364 -1.4852 -1.8430
H 6.3456 -1.0471 -3.5572
H 6.3646 -3.9363 -4.5536
H 5.4237 -2.6084 -5.3057
H 4.6057 -4.1444 -4.8336
H 5.5729 -3.2820 2.1582
H 7.2093 -0.6581 1.9362
H 7.8338 -2.2827 2.4073
H 6.6632 -1.4382 3.4584
H 4.6976 -0.4203 1.3547
H 4.3367 -1.2317 2.9395
H 3.5917 -1.9008 1.5025
