64
 
C 1.0240 -0.6530 -0.0550
N 0.9970 0.6731 -0.1615
C 2.1226 1.6473 -0.2097
C 2.0592 3.0178 -0.7259
C 0.8669 3.8041 -1.2271
C 3.2361 3.8160 -0.7835
C 4.4552 3.3702 -0.2894
C 5.7223 4.1708 -0.3687
C 4.5009 2.1523 0.3315
C 3.3799 1.3277 0.3917
C 3.5821 0.1050 1.1492
C -0.3752 1.1014 -0.0325
C -1.2042 -0.1428 -0.1042
N -0.2831 -1.1980 0.2140
C -0.6803 -2.5660 0.5020
C 0.1368 -3.6722 0.1393
C 1.3274 -3.5926 -0.7135
C -0.1634 -4.9655 0.5476
C -1.2982 -5.2354 1.2810
C -1.5876 -6.6375 1.7002
C -2.1660 -4.1996 1.6031
C -1.8906 -2.8724 1.2301
C -2.9181 -1.8603 1.6750
Pd 2.7802 -1.8697 -0.2955
N 4.4956 -3.0582 -0.5304
C 4.9472 -3.9151 0.4524
C 4.2975 -4.0324 1.8016
C 6.1429 -4.6286 0.2681
C 6.8795 -4.4551 -0.8961
C 6.4223 -3.5753 -1.8724
C 5.2260 -2.8765 -1.6673
H -0.1329 3.4655 -1.0327
H 0.9700 4.0139 -2.3096
H 0.8388 4.7686 -0.6716
H 3.2013 4.8145 -1.2091
H 5.5662 5.1564 -0.8493
H 6.4695 3.5993 -0.9649
H 6.1359 4.3205 0.6517
H 5.4398 1.8299 0.7720
H 4.5089 0.0434 1.7483
H 3.8688 -0.4934 0.3128
H 2.7152 -0.0403 1.8378
H -0.7949 1.6793 -0.8513
H -0.4782 1.5877 0.9681
H -1.5402 -0.3369 -1.1516
H -2.0631 0.0796 0.5283
H 1.2829 -2.7034 -1.3709
H 1.3199 -4.3910 -1.4898
H 2.1675 -3.7147 -0.0013
H 0.5007 -5.7779 0.2714
H -0.7875 -7.3308 1.3598
H -2.5478 -6.9596 1.2516
H -1.6421 -6.6832 2.8066
H -3.0634 -4.4346 2.1623
H -3.7294 -2.2994 2.2900
H -3.4415 -1.4502 0.7842
H -2.4430 -1.0750 2.3008
H 3.5448 -3.2375 1.9781
H 5.0884 -3.9145 2.5834
H 3.8620 -5.0428 1.9369
H 6.5281 -5.2805 1.0449
H 7.8159 -4.9848 -1.0249
H 7.0016 -3.4285 -2.7742
H 4.8747 -2.1879 -2.4230
