68
 
C 2.3285 0.0257 -0.0391
N 1.5498 1.1308 0.0006
C 2.0449 2.5005 -0.0042
C 1.5776 3.2488 1.2250
C 2.0374 2.6204 2.5047
C 3.5526 2.5877 2.5536
C 0.2715 0.6713 -0.0055
C 0.2980 -0.6898 -0.0127
C -0.8839 -1.4389 0.0015
C -2.1034 -0.7543 0.0025
C -2.1359 0.6291 -0.0004
C -0.9628 1.3499 0.0007
N 1.5819 -1.0983 -0.0425
C 2.1039 -2.4484 -0.0114
C 1.6156 -3.2174 -1.2335
C 2.0841 -2.5039 -2.4897
C 1.6055 -3.2492 -3.7092
Pd 4.4216 0.0188 0.0151
P 6.8540 0.0534 0.0861
N 7.6356 -0.0136 1.7294
C 7.2664 1.0058 2.7280
C 7.4665 -1.3318 2.3701
N 7.5159 -1.3238 -0.8362
C 7.1547 -1.2722 -2.2816
C 8.9673 -1.2735 -0.7923
N 7.3835 1.6857 -0.4962
C 8.8352 1.8887 -0.5401
C 6.8941 2.0135 -1.8702
H 1.6690 3.0312 -0.8967
H 3.1525 2.5010 -0.0283
H 0.4692 3.2300 1.2345
H 2.0153 4.2712 1.1906
H 1.6299 1.5951 2.5516
H 1.6431 3.2331 3.3392
H 3.9578 1.9802 1.7086
H 3.8651 2.1277 3.5023
H 3.9597 3.6188 2.4880
H -0.9057 -2.5067 0.0042
H -3.0371 -1.2750 0.0040
H -3.0693 1.1659 -0.0041
H -1.1495 2.3892 0.0025
H 1.7649 -2.9405 0.9192
H 3.2173 -2.3956 -0.0069
H 0.5173 -3.2964 -1.2360
H 2.0104 -4.2468 -1.2151
H 3.1914 -2.4586 -2.4930
H 1.6851 -1.4663 -2.5105
H 1.9954 -4.2860 -3.6900
H 1.9497 -2.7368 -4.6234
H 0.5033 -3.2648 -3.7089
H 7.5762 1.9647 2.4559
H 7.8038 0.8999 3.6609
H 6.2771 0.9551 3.0770
H 7.7128 -2.1661 1.6863
H 6.4948 -1.4631 2.7933
H 7.9756 -1.3967 3.3430
H 6.1353 -1.3966 -2.5096
H 7.5502 -2.0843 -2.8705
H 7.5611 -0.4811 -2.8520
H 9.2848 -1.3916 0.2472
H 9.3584 -0.3763 -1.2034
H 9.3680 -2.1007 -1.4026
H 9.2843 1.6462 0.4261
H 9.0965 2.8716 -0.9492
H 9.2960 1.4206 -1.3632
H 5.8524 2.1157 -1.9661
H 7.2765 1.4440 -2.6733
H 7.1798 2.9873 -2.2493
