50
 
P 0.9138 0.0345 -0.0372
C 0.1469 1.8449 0.1134
C -1.3903 1.9688 0.1435
C 0.6552 2.6278 1.3599
C 0.6216 2.7536 -1.0462
C 0.4387 -0.6863 -1.7989
C 1.0454 0.0709 -2.9982
C 0.9478 -2.1359 -1.9997
C -1.0970 -0.7846 -2.0430
C 0.3797 -0.9584 1.5389
C -1.1616 -1.0511 1.6637
C 0.8637 -2.4235 1.4763
C 0.9163 -0.4217 2.8784
Pd 3.3738 0.0345 -0.0372
O 5.4238 0.0345 -0.0372
C 6.1812 -0.4998 -0.9624
C 7.5016 -0.2910 -0.6128
C 7.4822 0.4036 0.5826
C 6.1527 0.5833 0.9019
H -1.8488 1.6235 1.0658
H -1.8883 1.5150 -0.6986
H -1.6929 3.0352 0.0945
H 0.2305 2.2934 2.3044
H 0.2816 3.6793 1.3338
H 1.7642 2.6859 1.4146
H 0.1340 2.5026 -1.9780
H 1.7315 2.8142 -1.1214
H 0.2530 3.7972 -0.9221
H 2.1511 0.0557 -2.9605
H 0.7009 1.0784 -3.1620
H 0.7086 -0.4063 -3.9473
H 2.0491 -2.2032 -1.9052
H 0.6713 -2.4994 -3.0188
H 0.4499 -2.8772 -1.3672
H -1.5956 0.1784 -2.1102
H -1.6138 -1.4546 -1.3328
H -1.3217 -1.2149 -3.0412
H -1.6392 -1.4218 0.7461
H -1.6155 -0.1141 1.9769
H -1.4695 -1.7443 2.4735
H 0.4508 -2.9631 0.6258
H 0.4669 -2.9997 2.3454
H 1.9674 -2.5067 1.4958
H 0.5066 0.5419 3.1585
H 2.0231 -0.3899 2.8941
H 0.5670 -1.0730 3.7127
H 5.8176 -1.0116 -1.8431
H 8.3784 -0.6056 -1.1626
H 8.3369 0.7404 1.1540
H 5.7580 1.0892 1.7730
