25
 
P 1.0055 -0.0479 -0.0876
O -0.1613 -1.0841 -0.7520
C 0.3593 -1.4207 -2.0467
O 0.5187 -0.1516 1.5432
C 1.1250 0.9092 2.2483
O 0.6682 1.1503 -1.2645
C 1.2906 2.3510 -0.9301
Pd 3.4655 -0.0479 -0.0876
N 5.5655 -0.0479 -0.0876
C 6.3969 -0.6975 0.7424
O 7.6530 -0.4592 0.4282
C 7.6539 0.3503 -0.6110
C 6.3462 0.6180 -0.9482
H 0.0496 -2.4324 -2.3703
H 1.4839 -1.4447 -2.1323
H -0.0107 -0.6875 -2.7956
H 0.6634 0.9807 3.2545
H 0.9388 1.9070 1.8076
H 2.2126 0.7259 2.3731
H 1.1478 3.0407 -1.7875
H 2.3829 2.2109 -0.7854
H 0.7783 2.8428 -0.0835
H 6.0766 -1.3342 1.5555
H 8.5378 0.7312 -1.1052
H 5.9881 1.2466 -1.7527
