32
 
N -0.6521 -1.2276 -0.0657
C 0.6977 -1.1115 -0.0970
F 1.4585 -2.2080 -0.3254
C 1.3007 0.1240 0.1708
C 0.4991 1.2325 0.4574
C -0.8890 1.0999 0.4593
C -1.4526 -0.1527 0.2052
Pd -1.5818 -3.1031 -0.2763
N -2.4723 -4.9851 -0.4909
C -1.8961 -5.3561 0.8248
C -3.9419 -5.0106 -0.4374
C -1.8121 -6.1575 -1.1144
C -0.4705 -6.0774 -1.6097
C 0.3300 -7.2356 -1.7508
C -0.1540 -8.4872 -1.3771
C -1.4592 -8.6092 -0.9198
C -2.2959 -7.4852 -0.8292
H 2.3782 0.2217 0.1776
H 0.9493 2.1915 0.6830
H -1.5188 1.9555 0.6690
H -2.5290 -0.2720 0.2186
H -0.7853 -5.5258 0.8776
H -1.0047 -4.6877 0.9128
H -2.1032 -6.3591 1.2736
H -4.3422 -3.9878 -0.2997
H -4.3152 -5.6624 0.3927
H -4.3494 -5.4302 -1.3816
H 0.0175 -5.1273 -1.7744
H 1.3655 -7.1682 -2.0676
H 0.4973 -9.3597 -1.4006
H -1.7985 -9.5764 -0.5610
H -3.2551 -7.6451 -0.3590
