58
 
N -1.4020 -0.0822 -0.0549
C -0.5880 0.3481 -1.0850
C 0.7994 0.1493 -1.0486
F 1.5864 0.2816 -2.1331
C 1.3663 -0.1798 0.1289
C 0.5717 -0.2978 1.2529
C -0.8149 -0.4009 1.1223
Pd -3.4711 -0.1936 -0.2920
P -5.9006 -0.3384 -0.5433
C -6.6039 1.3707 -0.7082
C -5.9963 2.0807 -1.8944
C -8.0863 1.3656 -0.7976
C -6.2115 2.2012 0.5011
C -6.3131 -1.2622 -2.0596
C -5.7545 -2.6642 -1.9263
C -7.8072 -1.4108 -2.2066
C -5.7101 -0.6514 -3.2659
C -6.6076 -1.1063 0.9313
C -5.7549 -1.5144 1.9412
C -6.1922 -2.2905 2.9886
C -7.5215 -2.4639 3.2153
N -7.9803 -3.2677 4.3093
C -7.2076 -3.4021 5.5338
C -9.2297 -3.9979 4.1962
C -8.3941 -1.8245 2.3346
C -7.9517 -1.3128 1.1329
H -0.9863 0.7794 -1.9703
H 2.4116 -0.3191 0.1682
H 1.0275 -0.3534 2.2011
H -1.4194 -0.6834 1.9431
H -6.3045 1.7255 -2.7370
H -4.9178 2.0927 -1.8625
H -6.3956 3.0608 -2.0434
H -8.4067 0.9900 -1.6314
H -8.5000 2.3381 -0.9319
H -8.5353 0.8644 0.0257
H -5.1354 2.2476 0.6089
H -6.5854 1.7958 1.3960
H -6.6134 3.2084 0.4205
H -6.1900 -3.1711 -1.0792
H -4.6753 -2.6188 -1.8107
H -5.9950 -3.2490 -2.8116
H -8.2679 -1.8445 -1.3398
H -8.0794 -1.9365 -3.0948
H -8.2421 -0.5734 -2.4398
H -4.6470 -0.5288 -3.1608
H -6.1285 0.1802 -3.5129
H -5.9667 -1.1709 -4.1621
H -4.7383 -1.2348 1.9140
H -5.4964 -2.7234 3.6155
H -6.3029 -2.8320 5.5199
H -6.9161 -4.4322 5.7092
H -7.7777 -3.0391 6.3857
H -9.7022 -3.8397 3.2419
H -9.9296 -3.6797 4.9616
H -9.0671 -5.0721 4.2861
H -9.4098 -1.7444 2.5654
H -8.6490 -1.0717 0.4220
