26
 
N -0.6590 -1.2280 -0.0510
C 0.6472 -1.1545 0.3084
Cl 1.5447 -2.6387 0.5465
C 1.2300 0.0940 0.5640
C 0.4589 1.2514 0.4130
C -0.8752 1.1497 0.0147
C -1.4244 -0.1148 -0.2026
Pd -1.5756 -3.1044 -0.2726
N -2.4923 -4.9807 -0.4941
C -1.7518 -6.0823 -0.2042
C -2.2662 -7.3588 -0.4266
C -3.5273 -7.4950 -1.0194
C -4.0510 -8.8536 -1.3849
C -4.2792 -6.3429 -1.3007
C -3.7518 -5.0806 -0.9948
H 2.2584 0.1694 0.8925
H 0.8891 2.2247 0.6121
H -1.4824 2.0377 -0.1082
H -2.4617 -0.2162 -0.4941
H -0.7638 -5.9620 0.2206
H -1.6704 -8.2271 -0.1730
H -3.3340 -9.6556 -1.1040
H -4.1915 -8.8999 -2.4866
H -5.0205 -9.0491 -0.8846
H -5.2485 -6.4224 -1.7774
H -4.3013 -4.1845 -1.2513
