37
 
P 1.0327 0.0038 0.0944
O -0.1413 -0.3863 -1.0660
C 0.3920 0.1239 -2.2975
O 0.5337 -1.0710 1.3214
C 1.1382 -0.6736 2.5308
O 0.7099 1.6730 -0.0978
C 1.3510 2.3983 0.9007
Pd 3.4927 0.0038 0.0944
P 5.9527 0.0038 0.0944
C 6.8760 0.8551 1.4060
C 6.4359 -1.7217 0.3739
C 6.4356 0.8529 -1.4110
C 5.4825 1.3373 -2.3162
C 5.8988 1.8915 -3.5354
C 7.2615 1.9683 -3.8465
C 8.2124 1.5036 -2.9360
C 7.8014 0.9462 -1.7238
H 0.0836 -0.4854 -3.1681
H 1.5167 0.1467 -2.3746
H 0.0351 1.1650 -2.4535
H 0.6801 -1.2466 3.3625
H 0.9396 0.3800 2.8006
H 2.2271 -0.8898 2.5187
H 1.1999 3.4730 0.6630
H 2.4520 2.1722 0.9019
H 0.8257 2.2713 1.8683
H 6.5358 0.4282 2.3779
H 6.5378 1.9169 1.4085
H 7.9712 0.7937 1.3199
H 6.0648 -2.1075 1.3403
H 7.5471 -1.7780 0.3423
H 6.0465 -2.3355 -0.4659
H 4.4255 1.2600 -2.0960
H 5.1670 2.2463 -4.2490
H 7.5825 2.3800 -4.7951
H 9.2673 1.5575 -3.1756
H 8.5500 0.5663 -1.0399
