39
 
N -1.3861 -0.1207 -0.0405
C -0.7851 -0.3126 1.1926
C 0.5549 0.0260 1.3876
C 1.3353 0.2496 0.3348
Cl 3.0310 0.6920 0.5746
C 0.7943 0.1305 -0.9443
C -0.5972 0.0897 -1.1211
Pd -3.4696 -0.2075 -0.2931
P -5.9141 -0.3127 -0.5197
C -6.5948 1.3772 -0.7171
C -6.3106 -1.2514 -2.0567
C -5.3045 -1.8254 -2.8590
C -5.5644 -2.1397 -4.1916
C -6.8184 -2.1866 -4.6186
C -7.8551 -1.9346 -3.7274
C -7.5926 -1.3324 -2.4899
C -6.6393 -1.0981 0.9271
C -5.7793 -1.5442 1.9425
C -6.2594 -2.3204 2.9932
C -7.5673 -2.4188 3.1865
C -8.4377 -1.7399 2.3421
C -7.9790 -1.2182 1.1233
H -1.3384 -0.6888 1.9979
H 0.9621 0.1012 2.3408
H 1.4341 0.0901 -1.7674
H -1.0189 0.2188 -2.0729
H -6.1534 1.8633 -1.5744
H -6.3482 1.9552 0.1680
H -7.6567 1.3425 -0.8301
H -4.3490 -1.9831 -2.4699
H -4.7937 -2.3443 -4.8584
H -7.0079 -2.4212 -5.6129
H -8.8339 -2.1787 -3.9944
H -8.3616 -0.9357 -1.9079
H -4.7644 -1.2931 1.9064
H -5.6129 -2.8176 3.6371
H -7.9222 -2.9984 3.9724
H -9.4404 -1.6351 2.6129
H -8.6447 -0.8995 0.3886
