32
 
P 0.9468 0.0134 0.0836
O -0.2292 0.4938 1.2074
C 0.3050 0.0885 2.4770
O 0.4500 0.9880 -1.2251
C 1.0520 0.4932 -2.3992
O 0.6254 -1.6354 0.4091
C 1.2615 -2.4385 -0.5318
Pd 3.4068 0.0134 0.0836
C 5.5568 0.0134 0.0836
N 6.4169 0.0232 1.1451
C 6.1693 0.0336 2.5823
C 7.6610 0.0232 0.6158
Cl 9.1665 0.0361 1.5279
C 7.5636 0.0116 -0.7488
Cl 8.9193 0.0066 -1.8722
N 6.2570 0.0044 -1.0805
C 5.7172 -0.0126 -2.4357
H -0.0046 0.7677 3.2938
H 1.4296 0.0751 2.5557
H -0.0490 -0.9371 2.7193
H 0.5955 1.0002 -3.2736
H 0.8480 -0.5775 -2.5840
H 2.1420 0.7044 -2.4051
H 1.1115 -3.4908 -0.2088
H 2.3621 -2.2152 -0.5560
H 0.7325 -2.3882 -1.5043
H 5.0894 0.0315 2.8157
H 6.6484 0.9349 3.0277
H 6.6538 -0.8584 3.0406
H 6.5374 -0.0184 -3.1866
H 5.1007 0.8921 -2.6082
H 5.1096 -0.9276 -2.5870
