30
 
N -1.4084 -0.1285 -0.0244
C -0.8454 -0.1083 1.2266
C 0.5112 0.2440 1.4261
O 1.0250 0.5344 2.6558
C 0.2409 0.5405 3.7922
C 1.3280 0.2808 0.3213
C 0.8055 -0.0187 -0.9304
C -0.5836 -0.0780 -1.1045
Pd -3.4706 -0.2226 -0.2717
N -5.5451 -0.3277 -0.5073
C -6.2181 -1.5249 -0.4758
N -7.5234 -1.6180 -0.8806
C -8.2767 -0.5129 -1.0930
O -9.5714 -0.6101 -1.5218
C -10.1693 -1.8217 -1.8368
C -7.6848 0.7251 -0.8431
C -6.2852 0.8002 -0.6922
H -1.4435 -0.2676 2.0850
H 0.8073 0.8167 4.6930
H -0.1798 -0.4680 3.9423
H -0.5975 1.2541 3.6765
H 2.3649 0.5179 0.4470
H 1.4721 -0.1517 -1.7559
H -0.9939 -0.1442 -2.0958
H -5.7143 -2.4253 -0.2125
H -11.2117 -1.6929 -2.1862
H -10.1863 -2.4683 -0.9448
H -9.6104 -2.3466 -2.6349
H -8.2821 1.6104 -0.8137
H -5.8040 1.7651 -0.6504
