87
 
P 0.9702 -0.0361 -0.0883
O -0.1688 1.1373 -0.6126
C 0.1652 2.3801 0.0347
C 1.6049 2.7808 -0.1180
O 0.4860 -1.3692 -1.0369
C 0.6035 -1.1016 -2.4043
C 0.0307 -2.3074 -3.1435
O 0.4978 0.0486 1.5661
C -0.9220 -0.1388 1.6242
C -1.4528 0.0554 3.0282
Pd 3.4302 -0.0361 -0.0883
P 5.8902 -0.0361 -0.0883
C 6.2361 -1.2267 -1.5209
C 6.9496 -1.0304 -2.7781
C 7.3042 0.2679 -3.4716
C 7.3153 -2.1384 -3.5610
C 6.8936 -3.4211 -3.2566
C 7.3075 -4.5738 -4.1327
C 6.0045 -3.5944 -2.1978
C 5.6513 -2.5165 -1.3581
C 4.4793 -2.7178 -0.4135
C 6.5251 1.6423 -0.5612
C 5.7270 2.7646 -0.3161
C 4.5072 2.7024 0.4496
C 6.0607 4.0453 -0.7461
C 7.2388 4.2749 -1.4080
C 7.5525 5.6583 -1.8794
C 8.1434 3.2233 -1.5425
C 7.8389 1.9261 -1.0611
C 8.9672 0.9307 -1.0549
C 6.5522 -0.5515 1.6621
C 7.8420 -1.2072 1.8275
C 8.7122 -1.7662 0.7432
C 8.4344 -1.3903 3.0999
C 7.8161 -0.9875 4.2645
C 8.4678 -1.1578 5.6158
C 6.5729 -0.4071 4.1765
C 5.9293 -0.1631 2.9353
C 4.6169 0.5535 3.1300
H -0.0266 2.3622 1.1306
H -0.4240 3.2114 -0.3923
H 2.2341 2.0163 0.3934
H 1.8238 3.7409 0.3978
H 1.8851 2.8321 -1.1931
H 1.6733 -0.9873 -2.6786
H 0.0081 -0.2118 -2.7077
H 0.5820 -3.2277 -2.8516
H 0.1124 -2.1688 -4.2404
H -1.0416 -2.4461 -2.8784
H -1.2164 -1.1398 1.2448
H -1.4983 0.6307 1.0682
H -1.0463 -0.7235 3.6973
H -2.5645 -0.0210 3.0010
H -1.1881 1.0695 3.3999
H 6.7746 1.1319 -3.0616
H 6.9018 0.2330 -4.5078
H 8.3996 0.4110 -3.6046
H 7.9135 -1.9924 -4.4571
H 8.0077 -4.2500 -4.9360
H 6.4158 -5.0216 -4.6152
H 7.8300 -5.3445 -3.5275
H 5.5646 -4.5731 -2.0494
H 4.2468 -3.7914 -0.2650
H 3.5933 -2.2868 -0.9315
H 4.5598 -2.2247 0.5669
H 4.2589 1.7162 0.8209
H 3.8530 3.1063 -0.2997
H 4.5586 3.3740 1.3344
H 5.3742 4.8689 -0.5591
H 6.7586 6.3812 -1.5802
H 7.6329 5.6732 -2.9852
H 8.5027 5.9796 -1.4136
H 9.1042 3.4348 -1.9884
H 9.8814 1.3502 -1.5208
H 8.8075 -0.0344 -1.5333
H 9.1861 0.7285 0.0022
H 8.2795 -1.7068 -0.2502
H 8.8853 -2.8429 0.9555
H 9.7102 -1.2737 0.7589
H 9.4141 -1.8518 3.1873
H 9.4728 -1.6260 5.5442
H 7.8284 -1.7929 6.2643
H 8.5888 -0.1652 6.1052
H 6.1259 -0.1041 5.1203
H 4.3019 0.5706 4.2050
H 3.7919 0.0416 2.6046
H 4.7395 1.6261 2.9087
