28
 
N -0.6790 1.1930 0.0010
C 0.6719 1.2279 -0.0211
C 1.3340 2.5623 -0.0472
C 1.4049 0.0331 -0.0235
C 0.7220 -1.1926 0.0028
C 1.4739 -2.4923 0.0046
C -0.6801 -1.1956 0.0261
C -1.3748 0.0245 0.0206
C -2.8711 0.0662 0.0374
Pd -1.6914 3.0329 0.0055
C -2.7279 4.9165 0.0101
N -2.1073 6.1112 -0.0062
C -3.1168 6.9993 0.0058
C -4.3089 6.3110 0.0347
O -4.0361 5.0286 0.0327
H 0.5451 3.3712 -0.0517
H 1.9699 2.6357 -0.9559
H 1.9828 2.6578 0.8491
H 2.4876 0.0576 -0.0460
H 2.5724 -2.3273 -0.0138
H 1.1956 -3.0889 -0.8898
H 1.2233 -3.0705 0.9190
H -1.2199 -2.1356 0.0472
H -3.3031 -0.9586 0.0528
H -3.2349 0.5921 -0.8690
H -3.2234 0.6166 0.9340
H -2.9922 8.0737 -0.0045
H -5.3038 6.7353 0.0557
