38
 
N 1.1430 -0.6970 0.0890
C 0.0093 -1.4232 0.0663
C 0.1499 -2.9043 0.1695
C -1.2284 -0.7663 -0.0171
C -1.2513 0.6349 -0.0738
C -0.0521 1.3544 -0.0856
C 1.1589 0.6553 -0.0136
C 2.4828 1.3524 -0.0701
Pd 2.9539 -1.7051 0.4273
P 5.0752 -2.8860 0.8235
N 6.4199 -2.8006 -0.3327
C 6.8358 -1.4153 -0.6439
C 7.5282 -3.6894 -0.0512
O 5.8947 -1.9172 1.9639
C 5.2822 -2.1215 3.2205
O 4.6603 -4.5258 0.6052
C 3.7311 -4.8850 1.6000
H 1.2459 -3.1661 0.2746
H -0.2600 -3.3692 -0.7517
H -0.4163 -3.2738 1.0501
H -2.1575 -1.3211 -0.0139
H -2.1940 1.1659 -0.1153
H -0.0674 2.4360 -0.1473
H 2.3577 2.4548 -0.1481
H 3.0216 1.0085 -0.9799
H 3.1007 1.0900 0.8132
H 5.9578 -0.7417 -0.7829
H 7.3963 -1.3945 -1.6048
H 7.4930 -0.9924 0.1459
H 7.1496 -4.7299 -0.0179
H 8.0138 -3.4074 0.9016
H 8.2549 -3.6312 -0.8917
H 6.0096 -1.8866 4.0261
H 4.9802 -3.1741 3.4289
H 4.4140 -1.4405 3.3239
H 3.1668 -5.7726 1.2473
H 2.9624 -4.0999 1.7929
H 4.2562 -5.1830 2.5327
