49
 
N 0.9467 -0.0067 0.0844
C 0.9277 0.4371 -1.3259
C 0.2459 -1.3150 -0.0677
C 0.3842 0.9333 1.0258
C -0.2715 0.4959 2.1951
C -0.8721 1.4134 3.0631
C -0.8312 2.7804 2.7850
C -0.1709 3.2382 1.6499
C 0.4398 2.3331 0.7862
Pd 3.0467 -0.0067 0.0844
P 5.5067 -0.0067 0.0844
N 6.4306 1.5470 0.2234
C 6.1297 2.4791 -0.9003
C 5.9584 2.3058 1.4220
N 5.9365 -0.5157 1.7619
C 5.5336 -1.9071 2.0379
C 7.4017 -0.4394 2.0122
N 5.9966 -0.7419 -1.4785
C 7.4555 -0.9007 -1.5969
C 5.3746 -2.0676 -1.6848
H -0.1070 0.5978 -1.7115
H 1.4775 -0.2882 -1.9756
H 1.5034 1.3666 -1.4877
H -0.7742 -1.2765 0.3756
H 0.8393 -2.1492 0.3402
H -0.0321 -1.6419 -1.1107
H -0.3287 -0.5559 2.4387
H -1.3801 1.0616 3.9497
H -1.3092 3.4880 3.4482
H -0.1369 4.2980 1.4270
H 0.9225 2.7618 -0.0763
H 6.4956 2.1213 -1.8786
H 6.6341 3.4649 -0.7290
H 5.0405 2.7288 -0.9763
H 6.0002 1.7483 2.3718
H 4.9003 2.6459 1.3262
H 6.6068 3.1944 1.5888
H 4.4490 -2.0605 1.8839
H 5.7449 -2.1497 3.1070
H 6.1159 -2.6393 1.4313
H 7.8073 0.5872 1.9518
H 7.9841 -1.0626 1.3049
H 7.6337 -0.7569 3.0525
H 7.9797 0.0573 -1.4216
H 7.7088 -1.2245 -2.6332
H 7.8490 -1.6846 -0.9113
H 4.2662 -1.9959 -1.7024
H 5.6961 -2.8106 -0.9186
H 5.6894 -2.4881 -2.6713
