100
 
C 0.9010 -0.6430 -0.0020
N -0.3766 -1.1379 -0.2101
C -1.0679 -2.4771 -0.3763
C -2.5061 -2.6090 -0.0339
C -3.2854 -1.6025 0.8796
C -4.8195 -1.5262 0.9392
C -2.7572 -1.7454 2.2990
C -3.2152 -3.7645 -0.4202
C -2.6033 -4.8001 -1.0902
C -1.2516 -4.7848 -1.2714
C -0.4398 -3.7045 -0.8645
C 1.0336 -3.8912 -1.1333
C 1.5296 -5.3972 -0.9776
C 1.1839 -3.1701 -2.4998
C -1.0766 0.0036 -0.3533
C -0.3622 1.1129 -0.0023
N 0.9235 0.7702 0.1929
C 2.0299 1.8143 0.3120
C 2.0203 3.0404 1.1301
C 0.8616 3.5646 1.9698
C 1.2638 3.7569 3.4366
C 0.4119 4.9387 1.4129
C 3.1513 3.9311 1.1237
C 4.2659 3.7218 0.3578
C 4.2515 2.6889 -0.5098
C 3.1513 1.8094 -0.5936
C 3.1315 1.1444 -1.9240
C 3.8975 -0.1662 -1.9045
C 1.7619 1.2518 -2.5903
Pd 2.6584 -1.8814 -0.0135
P 4.6693 -3.2985 -0.0267
C 6.2372 -2.3556 -0.0024
C 6.5050 -1.5016 1.0877
C 7.5222 -0.5416 1.0167
C 8.2915 -0.4193 -0.1388
C 8.0732 -1.2847 -1.2112
C 7.0549 -2.2470 -1.1490
C 4.8112 -4.1976 1.6962
C 5.3024 -5.5622 1.8642
C 5.2874 -6.2382 3.1225
C 4.7940 -5.6063 4.2536
C 4.3376 -4.2955 4.1405
C 4.3425 -3.6086 2.8950
C 4.9367 -4.4029 -1.5181
C 5.9335 -5.3817 -1.7266
C 5.8797 -6.1877 -2.9013
C 4.8558 -6.0223 -3.8454
C 3.8902 -5.0722 -3.5843
O 2.9517 -4.9147 -4.3478
N 3.9964 -4.3251 -2.4407
H -3.1618 -0.5986 0.5925
H -5.3027 -2.3831 1.4418
H -5.2549 -1.3102 -0.0593
H -5.0621 -0.6197 1.5581
H -2.9250 -2.7829 2.6658
H -3.2796 -1.0512 2.9918
H -1.6804 -1.4933 2.2922
H -4.2639 -3.8860 -0.2023
H -3.1596 -5.6636 -1.4355
H -0.8623 -5.6543 -1.7728
H 1.5480 -3.4532 -0.2817
H 1.1246 -6.0969 -1.7288
H 1.2800 -5.7753 0.0448
H 2.6106 -5.6021 -1.0285
H 0.6577 -3.8167 -3.2235
H 2.0241 -2.8764 -3.1464
H 0.8918 -2.1260 -2.3114
H -2.0587 0.0781 -0.7648
H -0.7882 2.1034 -0.0247
H 0.0002 2.8794 1.9231
H 2.1446 4.4270 3.5410
H 1.5055 2.7797 3.8933
H 0.4329 4.2423 3.9893
H 1.2058 5.7097 1.5312
H -0.4676 5.3410 1.9562
H 0.1599 4.8445 0.3365
H 3.1927 4.8498 1.6899
H 5.1036 4.4151 0.3436
H 5.0883 2.6318 -1.2036
H 3.6722 1.8412 -2.6284
H 4.3544 -0.2882 -0.9019
H 4.7694 -0.0529 -2.5931
H 3.2578 -1.0673 -2.0138
H 1.1050 0.5069 -2.1664
H 1.8170 1.0672 -3.6747
H 1.3030 2.2654 -2.4098
H 5.8985 -1.5255 1.9794
H 7.6867 0.1399 1.8426
H 9.0434 0.3592 -0.2086
H 8.6654 -1.1753 -2.1115
H 6.8771 -2.8361 -2.0340
H 5.6991 -6.1666 1.0600
H 5.6425 -7.2659 3.2478
H 4.7626 -6.1335 5.2144
H 3.9606 -3.8188 5.0369
H 3.9492 -2.6124 2.8740
H 6.7147 -5.5453 -1.0047
H 6.6149 -6.9569 -3.0889
H 4.7928 -6.6229 -4.7519
H 3.3607 -3.6462 -2.1162
