98
 
P -0.0940 -2.5890 -0.0020
N -1.8785 -2.3302 0.2219
C -2.5982 -3.6339 0.1608
C -2.1749 -1.8293 1.5958
O -0.1573 -3.1714 -1.5958
C 0.7640 -2.7305 -2.5094
C 1.4093 -3.6722 -3.3356
C 2.5220 -3.3236 -4.0992
C 2.9570 -2.0062 -4.1414
C 2.2192 -1.0207 -3.4894
C 1.1212 -1.3628 -2.6647
C 0.2983 -0.2651 -2.0988
C -0.2049 0.6652 -3.0367
C -1.0596 1.6887 -2.6381
C -1.3893 1.8296 -1.2933
C -0.8805 0.9399 -0.3485
C -0.0678 -0.1276 -0.7321
O 0.3100 -1.0025 0.2265
Pd 1.4250 -4.0575 1.2581
C 2.7526 -5.3409 2.3594
N 3.8470 -4.9646 3.1337
C 4.6418 -3.6818 3.4052
C 5.4920 -3.5364 4.6234
C 5.3799 -4.4038 5.8908
C 6.3616 -4.3052 7.0659
C 4.0259 -4.0430 6.4848
C 6.3711 -2.4490 4.7846
C 6.4585 -1.4487 3.8672
C 5.6020 -1.4424 2.8055
C 4.6644 -2.4836 2.5455
C 3.7829 -2.1606 1.3382
C 2.9720 -0.8471 1.5641
C 4.6205 -1.9704 0.0767
C 4.1926 -6.1700 3.6634
C 3.2995 -7.1580 3.3674
N 2.4178 -6.7109 2.4721
C 1.4675 -7.6910 1.7973
C 0.6053 -8.6327 2.5348
C 0.4884 -8.7690 4.0686
C -0.9423 -8.5893 4.6190
C 0.9581 -10.1749 4.4789
C -0.2156 -9.5515 1.8128
C -0.2048 -9.6455 0.4400
C 0.6315 -8.8448 -0.2846
C 1.4606 -7.8880 0.3323
C 2.1885 -6.9763 -0.6400
C 2.4779 -7.3655 -2.1379
C 1.1664 -5.8796 -0.7378
H -2.7704 -3.9472 -0.8821
H -3.6304 -3.5712 0.5959
H -2.0938 -4.4343 0.7589
H -1.7292 -0.8432 1.7995
H -1.8707 -2.5452 2.4013
H -3.2773 -1.6872 1.7275
H 1.0922 -4.7033 -3.3617
H 3.0588 -4.0869 -4.6467
H 3.8400 -1.7480 -4.7146
H 2.5275 0.0127 -3.6066
H 0.0226 0.5705 -4.0956
H -1.4735 2.3659 -3.3754
H -2.0546 2.6198 -0.9797
H -1.1516 1.0537 0.6888
H 5.5655 -5.4221 5.6688
H 6.2246 -3.4088 7.7060
H 7.4051 -4.3882 6.7110
H 6.1316 -5.1883 7.7186
H 4.0241 -2.9312 6.6419
H 3.8346 -4.4912 7.4805
H 3.2457 -4.3622 5.7772
H 6.9920 -2.3287 5.6597
H 7.1536 -0.6287 4.0165
H 5.6949 -0.5661 2.1796
H 3.1047 -2.9781 1.1372
H 3.6090 0.0161 1.8518
H 2.1882 -0.9563 2.3437
H 2.5136 -0.5111 0.6156
H 5.2352 -1.0508 0.1504
H 3.9721 -1.8312 -0.8147
H 5.2592 -2.8628 -0.0546
H 5.0422 -6.4548 4.2083
H 3.3660 -8.1667 3.7521
H 1.1243 -8.0267 4.5814
H -1.6643 -9.3118 4.1779
H -1.3011 -7.5575 4.4480
H -0.9425 -8.7857 5.7169
H 0.3030 -10.9606 4.0391
H 0.9238 -10.3290 5.5788
H 1.9989 -10.3078 4.1305
H -0.8896 -10.2405 2.3063
H -0.8510 -10.3487 -0.0801
H 0.5938 -8.9549 -1.3615
H 3.1668 -6.7071 -0.1982
H 1.5802 -7.3820 -2.8058
H 3.0303 -8.3159 -2.2856
H 3.1048 -6.5455 -2.5639
H 0.2163 -6.3252 -1.1597
H 1.4876 -5.0871 -1.3655
H 0.9227 -5.5494 0.2307
