87
 
C 1.0240 -0.6530 -0.0550
N 0.9796 0.7078 -0.0247
C 2.0969 1.7835 0.0373
C 2.0423 3.2130 -0.4119
C 0.8763 4.0170 -0.9459
C 0.3012 3.4711 -2.2476
C -0.0649 4.2547 0.2209
C 3.1976 4.0659 -0.3651
C 4.3930 3.6692 0.1547
C 4.5012 2.4042 0.6251
C 3.4274 1.4828 0.5479
C 3.8836 0.1105 0.7473
C 3.0000 -0.6295 1.8422
C 4.0762 -0.1236 -0.7874
C -0.4629 1.0075 0.0429
C -1.1747 -0.2303 -0.4517
N -0.3053 -1.2956 -0.0954
C -0.7226 -2.6271 0.4230
C 0.0995 -3.8039 0.2014
C 1.2881 -3.8370 -0.7201
C 2.4197 -4.7325 -0.1599
C 1.1406 -4.0541 -2.2122
C -0.1881 -5.0179 0.8473
C -1.2566 -5.1735 1.6505
C -2.1488 -4.1565 1.7778
C -1.9724 -2.8788 1.1777
C -3.1744 -1.9166 1.3919
C -4.1650 -2.0567 0.2035
C -4.0006 -2.1764 2.6712
Pd 2.7802 -1.8697 -0.2955
N 4.4956 -3.0582 -0.5304
C 5.0602 -3.5398 -1.7571
N 4.6110 -3.1837 -3.1012
C 3.9206 -1.9580 -3.3433
C 4.9679 -3.9152 -4.3330
C 6.1763 -4.4071 -1.7013
C 6.6894 -4.8417 -0.5030
C 6.1302 -4.3904 0.6757
C 5.0653 -3.4763 0.6477
H 1.1673 5.0654 -1.2272
H 0.0931 2.4006 -2.2118
H 1.0419 3.5845 -3.0679
H -0.6135 4.0443 -2.5086
H -0.4584 3.3429 0.6319
H -0.8990 4.9193 -0.0632
H 0.5097 4.7055 1.0625
H 3.2056 5.0923 -0.7297
H 5.2557 4.3331 0.1705
H 5.4862 2.1138 0.9739
H 4.9260 0.0283 1.1209
H 2.0592 -0.0680 2.0358
H 3.4680 -0.4066 2.8212
H 2.7196 -1.7044 1.9539
H 3.1031 -0.1292 -1.3242
H 4.7680 -0.9283 -0.9557
H 4.5938 0.6573 -1.3904
H -0.9053 1.7699 -0.6045
H -0.7396 1.1904 1.1037
H -1.1611 -0.2204 -1.5641
H -2.2382 -0.2773 -0.2425
H 1.4059 -2.8289 -0.9250
H 2.1949 -5.8035 -0.1082
H 2.7152 -4.3887 0.8583
H 3.2253 -4.8575 -0.8782
H 0.9600 -5.1057 -2.4540
H 2.1225 -3.7703 -2.6646
H 0.3990 -3.3563 -2.6708
H 0.4059 -5.9035 0.7654
H -1.4140 -6.1259 2.1394
H -2.9885 -4.4441 2.3720
H -2.8309 -0.8852 1.5802
H -4.4960 -3.1158 0.1023
H -3.7363 -1.7600 -0.7732
H -5.0784 -1.4429 0.3705
H -4.5290 -3.1515 2.6546
H -4.8173 -1.4317 2.7685
H -3.3368 -2.0978 3.5563
H 3.2945 -1.7544 -2.4634
H 3.1524 -2.1004 -4.1260
H 4.6628 -1.2183 -3.7502
H 5.4038 -4.9218 -4.1892
H 5.6496 -3.3129 -4.9770
H 4.0489 -4.1019 -4.9322
H 6.6839 -4.7645 -2.5844
H 7.5264 -5.5337 -0.5038
H 6.5263 -4.7658 1.6091
H 4.6411 -3.1649 1.5894
