35
 
C 1.0878 -0.2753 0.0098
O -0.0326 -0.3075 -0.1163
Pd 3.1107 -0.1593 0.2058
P 5.4539 0.1589 0.0716
N 6.5030 1.3832 -0.6382
C 5.9717 1.5505 -2.0088
C 6.2333 2.6793 0.0535
O 5.8977 -1.1878 -0.8306
C 5.9977 -2.4125 -0.2240
C 5.1921 -3.4430 -0.7195
C 5.1876 -4.7129 -0.1325
C 6.0216 -4.9944 0.9457
C 6.8799 -4.0083 1.4295
C 6.8756 -2.7025 0.8688
C 7.8107 -1.6979 1.4326
C 9.1591 -2.0921 1.6601
C 10.0931 -1.1797 2.1526
C 9.6906 0.1139 2.4697
C 8.3623 0.5028 2.2960
C 7.4110 -0.3643 1.7605
O 6.1460 0.1315 1.5951
H 6.1021 0.6168 -2.5883
H 6.4968 2.3648 -2.5458
H 4.8734 1.7978 -2.0214
H 6.5171 2.6503 1.1254
H 5.1612 3.0095 0.0032
H 6.8149 3.5015 -0.4183
H 4.5416 -3.2435 -1.5564
H 4.5264 -5.4802 -0.5112
H 6.0015 -5.9783 1.4059
H 7.5206 -4.2645 2.2710
H 9.5116 -3.0945 1.4215
H 11.1312 -1.4694 2.2857
H 10.4084 0.8270 2.8483
H 8.0635 1.5044 2.5548
