76
 
P 1.0074 0.0454 -0.0888
C 0.1095 -0.7625 1.3811
C 0.5939 -2.2336 1.6317
C 2.0725 -2.3453 2.1023
C 2.3266 -1.5628 3.3939
C 1.8266 -0.1199 3.2334
C 0.3506 -0.0409 2.7587
C 0.3982 1.8284 -0.1476
C -0.0323 3.1405 0.6713
C 1.0777 3.8804 1.4529
C 2.3730 3.9483 0.6591
C 2.6105 2.5465 0.1469
C 1.5772 2.3108 -0.9380
C 0.6928 -1.1007 -1.6688
C -0.8056 -1.2671 -2.1151
C -1.3856 -0.0109 -2.8131
C -0.5908 0.3868 -4.0649
C 0.8816 0.5149 -3.7308
C 1.4204 -0.7565 -3.0294
Pd 3.4674 0.0454 -0.0888
C 5.6174 0.0454 -0.0888
N 6.3709 1.0506 0.2148
C 5.9231 2.3920 0.4707
C 5.5192 3.0406 -0.8643
C 7.7698 0.7132 0.1564
C 7.7619 -0.8076 0.0247
N 6.4078 -1.0883 -0.3819
C 5.9920 -2.3429 -0.9735
C 4.5156 -2.3480 -1.3479
H -0.9770 -0.7614 1.1665
H 0.4515 -2.8460 0.7235
H -0.0300 -2.6842 2.4386
H 2.7439 -1.9438 1.3252
H 2.3497 -3.4118 2.2780
H 3.4224 -1.5577 3.6154
H 1.8305 -2.0647 4.2555
H 2.4503 0.3692 2.4766
H 1.9729 0.4165 4.1991
H 0.0343 1.0186 2.7110
H -0.2795 -0.5188 3.5512
H -0.5836 1.6432 -0.5650
H -0.9271 3.0225 1.3185
H -0.3661 3.8686 -0.1203
H 1.2802 3.2972 2.3659
H 0.7735 4.9172 1.7368
H 3.2091 4.2850 1.2986
H 2.3110 4.6521 -0.2121
H 2.7281 1.7821 0.9155
H 3.4796 2.3789 -0.2661
H 2.1049 1.6090 -1.6082
H 1.3171 3.1760 -1.5925
H 1.0682 -2.1107 -1.3953
H -1.4455 -1.5878 -1.2736
H -0.8736 -2.0753 -2.8880
H -1.3804 0.8242 -2.1340
H -2.4471 -0.1548 -3.0928
H -0.9551 1.3725 -4.4429
H -0.7180 -0.3673 -4.8650
H 0.9124 1.3899 -3.1162
H 1.4763 0.7619 -4.6375
H 2.5134 -0.7291 -2.9182
H 1.2382 -1.5810 -3.7726
H 6.7420 3.0271 0.8710
H 5.1385 2.3485 1.2633
H 6.3388 3.2685 -1.5463
H 4.9432 3.9683 -0.6276
H 4.9438 2.3163 -1.4912
H 8.3493 1.0445 1.0450
H 8.1723 1.1947 -0.7636
H 7.8902 -1.2640 1.0315
H 8.5527 -1.1559 -0.6718
H 6.2114 -3.1778 -0.2781
H 6.5855 -2.4974 -1.9050
H 3.8853 -2.2614 -0.4452
H 4.2695 -3.3074 -1.8514
H 4.3275 -1.5198 -2.0558
