42
 
N -0.3280 -1.0820 0.0030
C -1.0967 0.0135 -0.0350
N -0.3376 1.1345 -0.0206
C -0.7906 2.5046 -0.0899
C -2.1630 2.8090 -0.2040
C -2.5881 4.1329 -0.3338
C -1.6559 5.1710 -0.3451
C -0.2968 4.8888 -0.2117
C 0.1351 3.5688 -0.0833
C 0.9457 0.7023 0.0367
C 0.9452 -0.6701 0.0485
Pd -0.9301 -3.0938 0.0163
N -1.5321 -5.1056 0.0297
C -2.8688 -5.3565 -0.0243
C -3.3435 -6.6688 -0.0312
C -2.4323 -7.7206 0.0073
C -1.0610 -7.4452 0.0546
C -0.1301 -8.4760 0.0773
C 1.2275 -8.1829 0.1303
C 1.6917 -6.8445 0.1716
C 3.1508 -6.5343 0.2624
O 3.5030 -5.3658 0.3172
C 4.2373 -7.5853 0.3146
C 0.7360 -5.7915 0.1357
C -0.6223 -6.1033 0.0742
H -2.1754 -0.0254 -0.0751
H -2.9152 2.0344 -0.2098
H -3.6428 4.3513 -0.4359
H -1.9858 6.1943 -0.4587
H 0.4285 5.6916 -0.2178
H 1.1964 3.3954 0.0072
H 1.8323 1.3180 0.0590
H 1.8057 -1.3247 0.0855
H -3.5651 -4.5296 -0.0642
H -4.4063 -6.8695 -0.0716
H -2.7946 -8.7421 -0.0017
H -0.4512 -9.5114 0.0532
H 1.8812 -9.0355 0.1433
H 3.8917 -8.6296 0.2482
H 4.7881 -7.4939 1.2732
H 4.9416 -7.4313 -0.5279
H 0.9959 -4.7167 0.1572
