68
 
P 1.0107 0.0579 0.0808
C -0.3167 -0.4887 1.5690
C -0.2848 -1.9419 2.2786
C 0.8501 -2.1564 3.3154
C 0.5826 -1.2758 4.5328
C 0.4813 0.1879 4.0819
C -0.5586 0.3655 2.9173
C 0.5258 1.8902 -0.1753
C 0.9068 2.7395 1.0399
C 2.3976 3.0419 1.0808
C 2.7131 3.9974 -0.0634
C 2.3900 3.3208 -1.4031
C 0.9464 2.7556 -1.4315
C 0.7140 -1.2705 -1.2263
C 1.4722 -1.1329 -2.5764
C 2.9717 -1.5189 -2.4733
C 3.1579 -2.9214 -1.8881
C 2.4972 -2.9469 -0.5304
C 1.0123 -2.6872 -0.7446
Pd 3.4707 0.0579 0.0808
N 5.5707 0.0579 0.0808
C 6.2097 -1.1290 -0.0542
C 7.5933 -1.1936 0.0562
C 8.3262 -0.0193 0.3130
O 9.6760 -0.0323 0.4606
C 10.4547 -1.1727 0.4434
C 7.6376 1.1962 0.4361
C 6.2444 1.2128 0.3191
H -1.2891 -0.4322 1.0434
H -0.4502 -2.8643 1.7352
H -1.2283 -2.0717 2.8599
H 1.8467 -1.9428 2.8772
H 0.8485 -3.2104 3.6820
H 1.3645 -1.4151 5.3182
H -0.3772 -1.6008 5.0071
H 1.4848 0.5481 3.7864
H 0.1575 0.7614 4.9847
H -0.8569 1.4112 2.7830
H -1.5094 0.0048 3.3774
H -0.5827 1.8249 -0.2502
H 0.7012 2.2431 1.9579
H 0.3195 3.6900 1.0276
H 2.9947 2.0961 1.0222
H 2.6195 3.5472 2.0435
H 3.7794 4.3050 -0.0249
H 2.1003 4.9221 0.0680
H 3.1100 2.5018 -1.5758
H 2.5200 4.0870 -2.2068
H 0.7295 2.2712 -2.4059
H 0.2953 3.6668 -1.4082
H -0.3753 -1.1959 -1.4388
H 1.3414 -0.1299 -3.0268
H 1.0082 -1.8631 -3.2855
H 3.5041 -0.8134 -1.8117
H 3.4218 -1.5155 -3.4908
H 4.2340 -3.1667 -1.7880
H 2.6939 -3.7031 -2.5372
H 2.9600 -2.1623 0.1130
H 2.6247 -3.9463 -0.0596
H 0.5289 -2.8544 0.1459
H 0.5780 -3.4398 -1.4390
H 5.6384 -2.0302 -0.2203
H 8.0734 -2.1568 -0.0401
H 11.5196 -0.8999 0.5804
H 10.3438 -1.6955 -0.5306
H 10.1518 -1.8524 1.2704
H 8.1708 2.1161 0.6430
H 5.6939 2.1366 0.4438
