50
 
P 1.0184 -0.0016 0.0983
C 0.2249 -1.6249 0.0367
C -1.1563 -1.8098 0.0957
C -1.6879 -3.1065 0.1172
C -0.8459 -4.2238 0.0680
C 0.5333 -4.0506 -0.0415
C 1.0687 -2.7576 -0.0633
C 0.4622 0.2854 1.8027
C 0.8519 -0.4790 2.9123
C 0.2983 -0.2066 4.1776
C -0.6428 0.8184 4.3392
C -1.0151 1.5959 3.2457
C -0.4605 1.3374 1.9909
C 0.6430 1.0937 -1.2835
C -0.6908 1.4232 -1.6188
C -0.9659 2.3067 -2.6694
C 0.0847 2.8677 -3.3947
C 1.4158 2.5548 -3.0599
C 1.7080 1.6676 -1.9922
Pd 3.4784 -0.0016 0.0983
N 5.5784 -0.0016 0.0983
C 6.2050 0.9104 -0.6829
C 7.5876 0.8929 -0.8053
C 8.3340 -0.0940 -0.1356
O 9.6826 -0.1845 -0.2739
C 10.4350 0.6203 -1.1093
C 7.6589 -1.0162 0.6804
C 6.2651 -0.9434 0.7959
H -1.8134 -0.9579 0.1444
H -2.7561 -3.2460 0.1864
H -1.2618 -5.2234 0.1119
H 1.1837 -4.9188 -0.0957
H 2.1468 -2.6501 -0.1435
H 1.5679 -1.2799 2.8020
H 0.5857 -0.7950 5.0379
H -1.0859 1.0140 5.3093
H -1.7417 2.3927 3.3667
H -0.7788 1.9537 1.1598
H -1.5266 1.0161 -1.0665
H -1.9932 2.5625 -2.9198
H -0.1410 3.5524 -4.2095
H 2.2073 3.0172 -3.6337
H 2.7484 1.4094 -1.6691
H 5.6230 1.6475 -1.2193
H 8.0571 1.6324 -1.4374
H 11.5041 0.3385 -1.0447
H 10.3288 1.6842 -0.8075
H 10.0992 0.4975 -2.1636
H 8.2007 -1.7969 1.2010
H 5.7243 -1.6675 1.3919
