16
 
P 1.0961 -0.2772 -0.0513
F -0.4353 -0.8167 0.3319
F 0.7234 1.3378 0.2258
F 0.9684 -0.7958 -1.6487
Pt 3.4894 -0.1026 -0.0570
N 5.5009 0.0014 -0.0508
C 6.1502 1.1953 -0.0844
C 7.5433 1.2287 -0.2271
C 8.2557 0.0286 -0.3122
Cl 9.9925 0.0472 -0.5647
C 7.5750 -1.1863 -0.2205
C 6.1834 -1.1774 -0.0927
H 5.5866 2.1160 -0.0354
H 8.0621 2.1750 -0.2982
H 8.1136 -2.1250 -0.2786
H 5.6400 -2.1130 -0.0572
