67
 
P 1.0554 0.0607 0.0570
C 0.2508 -0.1688 -1.5380
C -1.1283 -0.2531 -1.7402
C -1.6276 -0.4888 -3.0299
C -0.7559 -0.6370 -4.1168
F -1.2439 -0.9059 -5.3531
C 0.6195 -0.5128 -3.9270
C 1.1195 -0.2730 -2.6464
C 0.6235 -1.5982 0.6811
C 0.9714 -2.7966 0.0420
C 0.6022 -4.0317 0.6081
C -0.1045 -4.0815 1.8159
F -0.4454 -5.2760 2.3652
C -0.4579 -2.8978 2.4591
C -0.1034 -1.6667 1.8950
C 0.5464 1.6162 0.8524
C -0.8197 1.8937 1.1036
C -1.2073 3.0736 1.7522
C -0.2411 3.9872 2.1692
F -0.6227 5.1319 2.7948
C 1.1169 3.7130 1.9503
C 1.5154 2.5272 1.2954
Pt 3.5154 0.0607 0.0570
P 5.9754 0.0607 0.0570
N 7.0008 0.0664 1.5121
C 6.4191 1.0616 2.4378
C 6.7973 -1.2481 2.2106
O 6.3039 1.5683 -0.5176
C 6.3825 1.6115 -1.8782
C 5.5564 2.5306 -2.5384
C 5.5370 2.6150 -3.9319
C 6.3644 1.7981 -4.6959
C 7.2158 0.8881 -4.0710
C 7.2388 0.7535 -2.6625
C 8.1814 -0.2747 -2.0909
C 9.5119 -0.2840 -2.5573
C 10.4483 -1.1866 -2.0485
C 10.0679 -2.1309 -1.0994
C 8.7502 -2.1797 -0.6582
C 7.8061 -1.2552 -1.1247
O 6.5578 -1.3260 -0.6268
H -1.8123 -0.1526 -0.9163
H -2.6930 -0.5712 -3.1856
H 1.2990 -0.6152 -4.7672
H 2.1952 -0.1865 -2.5209
H 1.5196 -2.7772 -0.8869
H 0.8665 -4.9570 0.1150
H -1.0044 -2.9358 3.3971
H -0.3961 -0.7680 2.4250
H -1.6005 1.2054 0.8196
H -2.2581 3.2792 1.9385
H 1.8542 4.4246 2.2971
H 2.5736 2.2933 1.1351
H 6.5133 2.0801 2.0239
H 6.9377 1.0370 3.4232
H 5.3323 0.8669 2.6444
H 7.0863 -2.1210 1.5996
H 5.7340 -1.4378 2.5173
H 7.4084 -1.3173 3.1377
H 4.9016 3.1691 -1.9622
H 4.8736 3.3147 -4.4231
H 6.3426 1.8669 -5.7780
H 7.8381 0.2612 -4.7018
H 9.8403 0.4377 -3.2943
H 11.4743 -1.1508 -2.3884
H 10.7942 -2.8273 -0.7011
H 8.4732 -2.9267 0.0729
