82
 
P 0.9257 -0.0659 0.0114
C 0.1664 1.6889 -0.4399
C -1.3711 1.7854 -0.4461
C 0.6160 2.8648 0.4874
C 0.6958 2.1360 -1.8255
C 0.4632 -1.2967 -1.5158
C 1.1629 -0.8926 -2.8301
C 0.8486 -2.8203 -1.4374
C -1.0713 -1.4136 -1.7438
C 0.4604 -0.4727 1.7823
C 0.9803 -1.8371 2.4270
C 2.5185 -1.8710 2.3683
C 0.5115 -1.9323 3.9009
C 0.4707 -3.1344 1.7930
Pt 3.3857 -0.0659 0.0114
P 5.8457 -0.0659 0.0114
C 6.5445 -1.7110 0.3155
C 6.0650 -2.7426 -0.5169
C 6.4082 -4.0753 -0.2851
C 7.2387 -4.4005 0.7847
C 7.7332 -3.3880 1.6163
C 7.3882 -2.0420 1.3887
C 6.3657 0.2002 -1.6908
C 5.4502 0.5190 -2.7003
C 5.9083 0.7658 -4.0033
C 7.2751 0.6912 -4.2984
C 8.1906 0.3860 -3.2899
C 7.7389 0.1492 -1.9900
C 6.3257 1.1179 1.3017
C 5.9909 0.9964 2.6680
O 5.2913 -0.0851 3.0967
C 4.9311 -0.3174 4.4110
C 6.3965 2.0172 3.5651
C 7.1156 3.1250 3.1155
C 7.4528 3.2340 1.7719
C 7.0631 2.2403 0.8745
H -1.7869 1.6657 0.5697
H -1.8737 1.0997 -1.1059
H -1.6843 2.7765 -0.8532
H 0.3297 2.7268 1.5452
H 0.0898 3.8058 0.1633
H 1.6922 3.1291 0.3988
H 0.1288 1.6673 -2.6269
H 1.8007 1.9801 -1.9006
H 0.5076 3.2091 -2.0481
H 2.2525 -0.7954 -2.6572
H 0.7696 -0.0244 -3.3308
H 1.0003 -1.6461 -3.6334
H 1.9326 -3.0252 -1.3250
H 0.5677 -3.3454 -2.3864
H 0.1751 -3.4373 -0.8145
H -1.5360 -0.5197 -2.1387
H -1.5860 -1.7820 -0.8233
H -1.3184 -2.1354 -2.5553
H -0.6494 -0.4637 1.8453
H 0.8418 0.3569 2.4106
H 2.8875 -0.9705 2.8784
H 2.8767 -1.8844 1.3469
H 2.9076 -2.7870 2.8602
H 0.8475 -1.0576 4.4860
H 0.9312 -2.8492 4.3821
H -0.5972 -2.0186 3.9627
H 1.0528 -3.2747 0.9060
H -0.6351 -3.1655 1.6594
H 0.7644 -4.0415 2.3699
H 5.3868 -2.5206 -1.3326
H 6.0101 -4.8572 -0.9223
H 7.4856 -5.4393 0.9734
H 8.3653 -3.6583 2.4520
H 7.7498 -1.2841 2.0673
H 4.3946 0.5976 -2.4759
H 5.2070 1.0214 -4.7861
H 7.6280 0.8778 -5.3052
H 9.2500 0.3389 -3.5128
H 8.4627 -0.0712 -1.2140
H 4.3753 -1.2713 4.4859
H 4.2778 0.5049 4.7774
H 5.8348 -0.4042 5.0489
H 6.1587 1.9725 4.6188
H 7.4119 3.9014 3.8108
H 8.0124 4.0939 1.4235
H 7.3359 2.3601 -0.1658
