81
 
P 0.9770 -0.0499 -0.0835
C 0.2087 -1.5142 0.6370
C -1.1579 -1.5973 0.8305
C -1.7252 -2.7534 1.3471
C -0.9369 -3.8742 1.6751
O -1.4904 -5.0044 2.1891
C -2.8238 -5.1150 2.5388
C 0.4480 -3.8111 1.4684
C 1.0232 -2.6336 0.9600
C 0.4259 1.1661 1.1370
C 0.8359 1.2381 2.4725
C 0.2534 2.1899 3.3235
C -0.7397 3.0803 2.8565
O -1.3737 3.9556 3.6815
C -1.1790 4.0115 5.0474
C -1.0951 3.0457 1.5065
C -0.5121 2.1044 0.6595
C 0.5184 0.0008 -1.8073
C -0.8345 -0.0336 -2.1873
C -1.1941 -0.0081 -3.5271
C -0.2075 0.0737 -4.5234
O -0.5368 0.0657 -5.8454
C -1.8172 -0.1320 -6.3402
C 1.1507 0.1586 -4.1349
C 1.5205 0.1165 -2.7709
Pt 3.4370 -0.0499 -0.0835
P 5.8970 -0.0499 -0.0835
C 6.5906 -0.9619 -1.4895
C 6.1269 -0.6171 -2.7684
C 6.4830 -1.3701 -3.8871
C 7.3071 -2.4864 -3.7455
F 7.6299 -3.2280 -4.8348
C 7.7765 -2.8499 -2.4788
C 7.4177 -2.0962 -1.3478
C 6.4215 1.5750 -0.6546
C 5.5073 2.6211 -0.8146
C 5.9549 3.8813 -1.2339
C 7.3140 4.1000 -1.4895
F 7.7395 5.3109 -1.9265
C 8.2354 3.0713 -1.2865
C 7.7937 1.8178 -0.8595
C 6.3908 -0.7090 1.5157
C 5.4364 -1.0836 2.4723
C 5.8626 -1.5187 3.7416
C 7.2300 -1.5793 4.0490
F 7.6398 -1.9679 5.2831
C 8.1765 -1.2284 3.0853
C 7.7589 -0.7963 1.8253
H -1.7899 -0.7646 0.5885
H -2.7923 -2.7578 1.4823
H -3.0387 -6.1298 2.9248
H -3.4693 -4.9328 1.6524
H -3.0634 -4.3711 3.3314
H 1.0748 -4.6701 1.7024
H 2.1002 -2.6173 0.8071
H 1.5850 0.5702 2.8699
H 0.5660 2.2151 4.3557
H -1.8465 4.7713 5.5007
H -0.1252 4.2849 5.2605
H -1.4107 3.0233 5.5052
H -1.8419 3.7271 1.1086
H -0.8253 2.0928 -0.3770
H -1.6311 -0.0839 -1.4631
H -2.2483 -0.0558 -3.7747
H -1.8070 -0.1013 -7.4484
H -2.5018 0.6637 -5.9757
H -2.2044 -1.1266 -6.0219
H 1.9173 0.2458 -4.8921
H 2.5742 0.1756 -2.4209
H 5.4523 0.2196 -2.8943
H 6.0971 -1.0974 -4.8606
H 8.3972 -3.7325 -2.3760
H 7.7556 -2.4342 -0.3782
H 4.4581 2.4667 -0.6013
H 5.2481 4.6894 -1.3626
H 9.2913 3.2423 -1.4613
H 8.5255 1.0364 -0.6955
H 4.3730 -1.0138 2.2344
H 5.1389 -1.7952 4.4971
H 9.2346 -1.2760 3.3167
H 8.5075 -0.5146 1.0975
