62
 
P 0.9445 -0.0802 -0.0220
C 0.3766 -1.0466 1.4377
C -0.9562 -1.1944 1.8912
C -2.1379 -0.6596 1.1535
C -1.2071 -1.8723 3.1019
C -0.1729 -2.4444 3.8420
C 1.1292 -2.3879 3.3634
C 1.4033 -1.6978 2.1764
C 0.3715 1.5133 0.5634
C 0.9212 2.2040 1.6453
C 2.1236 1.6784 2.3824
C 0.3339 3.4300 2.0294
C -0.7751 3.9502 1.3438
C -1.2948 3.2738 0.2462
C -0.7129 2.0755 -0.1530
C 0.4000 -0.7795 -1.6668
C 0.6317 -0.1020 -2.9174
C 1.4935 1.1081 -3.0800
C 0.0244 -0.5561 -4.1066
C -0.7636 -1.6944 -4.1085
C -0.9462 -2.4028 -2.9232
C -0.3816 -1.9487 -1.7155
Pt 3.4045 -0.0802 -0.0220
P 5.8645 -0.0802 -0.0220
O 6.6888 -1.3528 0.8084
C 8.0899 -1.2786 0.7378
C 8.5387 -0.0600 -0.0469
C 10.0678 -0.0049 -0.0852
C 7.9100 -0.2095 -1.4879
O 6.5147 -0.5347 -1.5171
O 6.5282 1.0645 1.0345
C 7.9212 1.1810 0.7042
H -1.8568 -0.1704 0.2144
H -2.6829 0.0469 1.8090
H -2.8086 -1.4987 0.8714
H -2.2165 -1.9517 3.4819
H -0.3851 -2.9437 4.7812
H 1.9256 -2.8663 3.9272
H 2.4374 -1.6718 1.8472
H 2.6057 0.7726 1.9179
H 1.8015 1.4904 3.4293
H 2.9191 2.4446 2.3722
H 0.7339 3.9895 2.8612
H -1.2302 4.8827 1.6543
H -2.1515 3.6709 -0.2919
H -1.1409 1.5718 -1.0154
H 2.1226 1.2733 -2.1902
H 0.8592 1.9869 -3.3246
H 2.1863 0.9410 -3.9395
H 0.1658 -0.0249 -5.0468
H -1.2235 -2.0245 -5.0362
H -1.5532 -3.2969 -2.9437
H -0.5810 -2.5036 -0.8143
H 8.4675 -2.2097 0.2618
H 8.4776 -1.2336 1.7785
H 10.4665 -0.9282 -0.5613
H 10.4635 0.0360 0.9540
H 10.4204 0.8812 -0.6464
H 8.4256 -1.0517 -1.9987
H 8.1024 0.7076 -2.0856
H 8.4492 1.2808 1.6764
H 8.1200 2.1088 0.1234
