37
 
P 1.0716 0.0180 -0.0675
C 0.3489 0.5758 -1.6314
C -1.0182 0.6740 -1.9207
C -1.4359 1.0406 -3.2086
C -0.4979 1.3386 -4.2046
Cl -1.0243 1.7229 -5.8339
C 0.8628 1.3195 -3.9023
C 1.2821 0.9442 -2.6246
C 0.5797 -1.7090 -0.2467
C 1.5152 -2.7447 -0.3203
C 1.0787 -4.0798 -0.3421
C -0.2889 -4.3829 -0.2837
Cl -0.8369 -6.0490 -0.3159
C -1.2225 -3.3542 -0.1781
C -0.7905 -2.0316 -0.1514
C 0.5612 0.9521 1.3904
C -0.1902 0.2780 2.3763
C -0.6602 0.9531 3.5050
C -0.3796 2.3100 3.6672
Cl -1.0022 3.1682 5.0665
C 0.3906 2.9813 2.7081
C 0.8635 2.3050 1.5713
Pt 3.5316 0.0180 -0.0675
C 5.6816 0.0180 -0.0675
O 6.8996 0.0180 -0.0675
H -1.7643 0.4634 -1.1782
H -2.4914 1.0784 -3.4374
H 1.5963 1.5737 -4.6606
H 2.3483 0.9235 -2.4203
H 2.5732 -2.5214 -0.3321
H 1.8015 -4.8816 -0.3893
H -2.2819 -3.5740 -0.0976
H -1.5391 -1.2696 -0.0135
H -0.4293 -0.7731 2.2763
H -1.2500 0.4232 4.2460
H 0.6123 4.0309 2.8411
H 1.4492 2.8354 0.8352
