37
 
P 0.9154 -0.0483 0.0226
C 0.1749 -1.7417 -0.0312
C -1.3423 -1.8379 0.0001
C 0.7408 -2.4786 -1.2563
C 0.3648 0.7417 1.5866
C 0.8504 0.0327 2.8449
C 0.8030 2.2127 1.5961
C 0.4354 0.7017 -1.5649
Pt 3.3754 -0.0483 0.0226
O 5.4254 -0.0483 0.0226
C 5.8087 -1.1929 -0.6661
C 5.3314 -2.4421 0.0673
C 5.2123 -1.1228 -2.0543
H 0.5641 -2.2891 0.8556
H -1.7934 -1.2848 -0.8445
H -1.7308 -1.4714 0.9707
H -1.6283 -2.9124 -0.0862
H 0.3765 -2.0281 -2.2007
H 0.4352 -3.5459 -1.2478
H 1.8545 -2.4465 -1.2498
H -0.7466 0.7220 1.5804
H 1.9512 0.1234 2.9518
H 0.5554 -1.0339 2.8299
H 0.3654 0.5033 3.7301
H 1.9110 2.2946 1.5647
H 0.4294 2.7256 2.5086
H 0.3831 2.7502 0.7176
H -0.6754 0.7373 -1.6100
H 0.8354 0.1606 -2.4392
H 0.7994 1.7499 -1.5837
H 6.9210 -1.2165 -0.7223
H 4.2225 -2.4531 0.1217
H 5.7488 -2.4676 1.0956
H 5.6759 -3.3502 -0.4744
H 4.0933 -1.0353 -1.9327
H 5.5289 -2.0202 -2.6346
H 5.6194 -0.2315 -2.5811
