59
 
P 1.0677 -0.0504 -0.0536
C 0.3150 0.5535 1.6674
C -1.2210 0.5678 1.7667
C 0.7511 -0.2518 2.9401
C 0.8452 1.9738 1.9800
C 0.5825 1.3527 -1.4202
C 1.2725 2.6973 -1.1302
C 0.9485 1.1647 -2.9438
C -0.9533 1.5558 -1.5450
C 0.6031 -1.8537 -0.3114
C 1.1373 -2.6081 -1.6101
C 2.6767 -2.5545 -1.5931
C 0.6677 -4.0779 -1.6144
C 0.6484 -2.0696 -2.9601
Pt 3.5277 -0.0504 -0.0536
C 5.6777 -0.0504 -0.0536
N 6.4336 1.0499 0.0619
C 5.9442 2.4109 0.2115
C 7.7150 0.6315 0.0126
C 7.7113 -0.7455 -0.1308
N 6.4286 -1.1565 -0.1692
C 5.9313 -2.5163 -0.3075
H -1.6355 -0.4550 1.7442
H -1.7293 1.1577 1.0326
H -1.5331 1.0770 2.7092
H 0.4832 -1.3225 2.9017
H 0.1939 0.1508 3.8330
H 1.8124 -0.1138 3.2410
H 0.2739 2.7177 1.4366
H 1.9512 2.0358 1.8180
H 0.6489 2.3096 3.0209
H 2.3630 2.5361 -1.0114
H 0.8717 3.2666 -0.3133
H 1.0985 3.4329 -1.9461
H 2.0333 1.0989 -3.1641
H 0.6082 2.0500 -3.5388
H 0.3039 0.4668 -3.5091
H -1.4237 1.9897 -0.6806
H -1.4619 0.6153 -1.8691
H -1.2077 2.3389 -2.2928
H -0.5066 -1.9227 -0.3005
H 0.9867 -2.4128 0.5642
H 3.0447 -3.0324 -0.6739
H 3.0653 -1.5147 -1.5947
H 3.0823 -3.0887 -2.4847
H 0.9722 -4.5830 -0.6826
H 1.1196 -4.6293 -2.4758
H -0.4381 -4.1533 -1.7372
H 1.2269 -1.1900 -3.1242
H -0.4617 -1.9549 -3.0268
H 0.9645 -2.6923 -3.8296
H 4.8290 2.4125 0.2256
H 6.3042 3.0318 -0.6356
H 6.3188 2.8374 1.1655
H 8.5846 1.2722 0.0769
H 8.5749 -1.3945 -0.2018
H 6.7711 -3.2379 -0.3785
H 5.3259 -2.5912 -1.2308
H 5.3029 -2.7743 0.5719
