68
 
P 0.9586 -0.0494 -0.0764
C 0.1963 -0.6496 1.4360
C -1.1738 -0.6343 1.6438
C -1.6987 -1.1191 2.8385
C -0.8639 -1.6517 3.8447
O -1.3692 -2.1111 5.0201
C -2.7035 -2.0204 5.3699
C 0.5184 -1.7031 3.6210
C 1.0466 -1.1979 2.4255
C 0.3476 1.6301 -0.0415
C 0.7105 2.5376 0.9362
C 0.1342 3.8042 0.9478
C -0.8184 4.1856 -0.0230
O -1.4424 5.3914 0.0268
C -1.2882 6.2899 1.0655
C -1.1418 3.2862 -1.0467
C -0.5580 2.0148 -1.0581
C 0.6009 -1.2744 -1.3572
C -0.1261 -2.4497 -1.1162
C -0.3373 -3.3682 -2.1463
C 0.1679 -3.1316 -3.4400
O 0.0244 -4.0357 -4.4450
C -0.4933 -5.3067 -4.2815
C 0.8502 -1.9345 -3.6907
C 1.0610 -1.0145 -2.6578
Pt 3.4186 -0.0494 -0.0764
C 5.5686 -0.0494 -0.0764
N 6.3230 0.7329 0.6847
C 5.7910 1.7012 1.6310
C 4.2265 1.7012 1.6024
C 7.6015 0.4175 0.3788
C 7.5733 -0.5800 -0.5907
N 6.2803 -0.8587 -0.8552
C 5.7055 -1.8312 -1.7787
C 4.1515 -1.7996 -1.7384
H -1.8331 -0.2429 0.8867
H -2.7662 -1.0734 2.9666
H -2.8724 -2.4651 6.3696
H -3.3262 -2.5682 4.6305
H -3.0126 -0.9514 5.3970
H 1.1835 -2.1270 4.3707
H 2.1214 -1.2497 2.2713
H 1.4225 2.2610 1.6948
H 0.4255 4.4749 1.7372
H -1.9284 7.1785 0.9051
H -0.2286 6.6159 1.1241
H -1.5837 5.8110 2.0271
H -1.8614 3.5567 -1.8167
H -0.8401 1.3236 -1.8483
H -0.5312 -2.6797 -0.1428
H -0.8889 -4.2694 -1.9218
H -0.4804 -5.8502 -5.2471
H -1.5417 -5.2483 -3.9215
H 0.1233 -5.8740 -3.5484
H 1.2356 -1.7192 -4.6812
H 1.5992 -0.0991 -2.8714
H 6.1888 2.7072 1.3683
H 6.1641 1.4474 2.6497
H 3.8181 1.9305 0.6111
H 3.9002 2.4737 2.3321
H 3.7945 0.7299 1.8717
H 8.4836 0.8670 0.8171
H 8.4237 -1.0606 -1.0585
H 6.0645 -2.8439 -1.4950
H 6.0671 -1.6101 -2.8075
H 3.7569 -2.0318 -0.7381
H 3.7780 -2.5614 -2.4520
H 3.7578 -0.8126 -2.0245
