62
 
P 1.0651 0.0651 0.0390
C 0.2844 0.5256 1.6122
C -1.0835 0.7608 1.7770
C -1.5806 1.2209 3.0129
C -3.0360 1.5109 3.1919
C -0.7079 1.4258 4.0916
C 0.6531 1.1759 3.9434
C 1.1487 0.7375 2.7113
C 0.7068 1.3029 -1.2233
C 1.7791 1.9059 -1.8931
C 1.5016 2.8982 -2.8756
C 2.5972 3.6207 -3.5923
C 0.1698 3.2446 -3.1844
C -0.8869 2.6097 -2.5404
C -0.6238 1.6434 -1.5674
C 0.4990 -1.6499 0.0061
C -0.2943 -2.0564 -1.0967
C -0.8520 -3.3473 -1.1470
C -1.7433 -3.7860 -2.2817
C -0.5928 -4.2363 -0.0994
C 0.2310 -3.8529 0.9652
C 0.7793 -2.5647 1.0190
Pt 3.5251 0.0651 0.0390
P 5.9851 0.0651 0.0390
O 6.8252 1.5279 0.4109
C 8.2212 1.4052 0.4407
C 8.6620 0.0210 0.0091
C 10.1920 -0.0408 -0.0012
C 8.0506 -0.9906 1.0506
O 6.6484 -0.8598 1.2932
O 6.6296 0.1478 -1.5264
C 8.0254 -0.1995 -1.4192
H -1.7567 0.6209 0.9526
H -3.6071 1.2845 2.2681
H -3.1736 2.5854 3.4407
H -3.4319 0.8895 4.0210
H -1.0829 1.7813 5.0458
H 1.3227 1.3362 4.7826
H 2.2172 0.5728 2.6206
H 2.8095 1.5790 -1.6098
H 3.5883 3.2183 -3.3083
H 2.5497 4.6952 -3.3124
H 2.4720 3.5377 -4.6949
H -0.0555 4.0031 -3.9311
H -1.9116 2.8733 -2.7933
H -1.4745 1.1746 -1.1003
H -0.5028 -1.3638 -1.9067
H -1.8323 -3.0110 -3.0725
H -2.7608 -3.9943 -1.8856
H -1.3528 -4.7172 -2.7475
H -1.0285 -5.2286 -0.1118
H 0.4296 -4.5546 1.7610
H 1.3989 -2.2741 1.8532
H 8.5744 1.6344 1.4694
H 8.6368 2.1696 -0.2515
H 10.5821 0.1948 1.0151
H 10.5923 0.7265 -0.6997
H 10.5504 -1.0416 -0.3069
H 8.5426 -0.8132 2.0322
H 8.2865 -2.0329 0.7461
H 8.5556 0.4719 -2.1272
H 8.2105 -1.2450 -1.7533
