94
 
P 0.9303 -0.0697 0.0170
C 0.1104 -0.5575 -1.5370
C -1.2728 -0.6838 -1.7359
C -1.7530 -1.3318 -2.8890
C -0.8646 -1.8314 -3.8674
O -1.2849 -2.5588 -4.9385
C -2.5819 -2.9858 -5.1493
C 0.5049 -1.6060 -3.7110
C 0.9849 -0.9765 -2.5601
C 0.4521 -1.4099 1.1567
C -0.4107 -2.4355 0.7589
C -0.9137 -3.3427 1.6719
C -0.5541 -3.2839 3.0256
O -1.0844 -4.1484 3.9320
C -2.0992 -5.0446 3.6383
C 0.3550 -2.2968 3.4394
C 0.8488 -1.3574 2.5131
C 0.3972 1.6325 0.2806
C -0.3018 1.8685 1.4825
C -0.8111 3.1241 1.7869
C -0.6355 4.1903 0.8937
O -1.1789 5.4156 1.1343
C -2.0159 5.7133 2.1983
C 0.1065 3.9712 -0.2854
C 0.6264 2.6965 -0.5914
Pt 3.3903 -0.0697 0.0170
C 5.5403 -0.0697 0.0170
N 6.2890 1.0850 -0.0944
C 5.8957 2.5084 -0.1118
C 4.7367 2.9249 0.5974
C 3.9555 2.0135 1.4672
C 4.3294 4.2608 0.6261
C 5.0580 5.2501 -0.0076
C 4.6039 6.6796 0.0918
C 6.2213 4.9003 -0.6914
C 6.6645 3.5559 -0.7543
C 7.9509 3.3337 -1.5146
C 7.5493 0.6536 -0.0225
C 7.5682 -0.6946 0.1248
N 6.3151 -1.2211 0.1178
C 5.9427 -2.7000 0.1380
C 6.8924 -3.8082 0.1005
C 8.3944 -3.7955 0.0165
C 6.4337 -5.1581 0.1112
C 5.0905 -5.4885 0.1209
C 4.5437 -6.8683 0.1337
C 4.1855 -4.5074 0.1196
C 4.5764 -3.1951 0.1363
C 3.4152 -2.4402 0.1856
H -1.9730 -0.3733 -0.9754
H -2.8165 -1.4882 -2.9906
H -2.6307 -3.6128 -6.0642
H -3.2464 -2.1087 -5.2795
H -2.9313 -3.6034 -4.2912
H 1.2085 -1.9692 -4.4545
H 2.0578 -0.8750 -2.4443
H -0.7560 -2.5463 -0.2451
H -1.6101 -4.0780 1.3010
H -2.3582 -5.6433 4.5324
H -1.7774 -5.7404 2.8334
H -3.0072 -4.4915 3.3050
H 0.6496 -2.2351 4.4825
H 1.5096 -0.5735 2.8682
H -0.4734 1.0786 2.2039
H -1.3552 3.2485 2.7163
H -2.3510 6.7684 2.1359
H -1.4816 5.5681 3.1612
H -2.9188 5.0614 2.1745
H 0.2646 4.7860 -0.9777
H 1.1814 2.5344 -1.5028
H 4.5911 1.1973 1.8532
H 3.0284 1.7474 0.9393
H 3.6972 2.5332 2.4124
H 3.4470 4.5385 1.1919
H 3.6679 6.7662 0.6882
H 4.4049 7.0862 -0.9196
H 5.3813 7.2886 0.5997
H 6.7949 5.6935 -1.1620
H 8.3398 4.2682 -1.9742
H 7.7987 2.5930 -2.3252
H 8.7674 3.0472 -0.8336
H 8.4423 1.2374 -0.0055
H 8.5138 -1.1249 0.2333
H 8.9656 -2.9111 -0.1498
H 8.6854 -4.3873 -0.8739
H 8.7957 -4.2632 0.9385
H 7.1355 -5.9764 0.0928
H 5.3546 -7.6104 0.1363
H 3.8912 -7.0013 -0.7600
H 3.9118 -6.9802 1.0452
H 3.1274 -4.7919 0.1233
H 2.3938 -2.8301 0.1192
H 3.5182 -1.8187 -0.7082
H 3.5145 -2.0579 1.2545
