72
 
P 0.9713 0.0518 -0.0806
C 0.1935 0.3732 1.6697
C 0.7452 -0.5403 2.8084
C 2.2384 -0.2809 3.0689
C 2.5063 1.2100 3.4037
C 1.8683 2.1736 2.3850
C 0.3897 1.8329 2.1747
C 0.4495 1.2100 -1.5729
C 0.8857 2.7065 -1.6953
C 2.3949 2.8107 -1.9522
C 2.8261 2.0510 -3.2353
C 2.3282 0.6048 -3.2057
C 0.8172 0.5860 -2.9600
C 0.4163 -1.6609 -0.1529
C -0.9698 -1.9914 -0.1618
C -2.0896 -0.9702 -0.1310
C -1.3477 -3.3405 -0.2426
C -0.3875 -4.3463 -0.3564
C 0.9618 -4.0134 -0.4285
C 1.3523 -2.6796 -0.3382
Pt 3.4313 0.0518 -0.0806
C 5.5813 0.0518 -0.0806
N 6.3558 0.8997 -0.7774
C 5.8944 1.9438 -1.6489
C 7.6333 0.5933 -0.5003
C 7.6281 -0.4336 0.4154
N 6.3434 -0.7717 0.6699
C 5.8907 -1.8095 1.5483
C 6.6863 -2.2600 2.6169
C 6.2498 -3.3118 3.4262
C 5.0429 -3.9562 3.1417
C 4.2429 -3.5066 2.0833
C 4.6479 -2.3995 1.3213
H -0.8891 0.2244 1.7012
H 0.5657 -1.6131 2.5909
H 0.1890 -0.3244 3.7564
H 2.7903 -0.6039 2.1603
H 2.5828 -0.9048 3.9293
H 3.5998 1.4090 3.4637
H 2.0801 1.4391 4.4065
H 2.3797 2.1265 1.4057
H 1.9641 3.2175 2.7684
H -0.0796 2.5585 1.4822
H -0.1230 1.9574 3.1626
H -0.6563 1.2346 -1.5668
H 0.5678 3.3186 -0.8295
H 0.3626 3.1716 -2.5791
H 2.8639 2.3469 -1.0545
H 2.6972 3.8819 -2.0735
H 3.9201 2.0433 -3.3827
H 2.4482 2.5656 -4.1449
H 2.8291 0.0250 -2.4048
H 2.5749 0.1357 -4.1854
H 0.4190 -0.4413 -3.0586
H 0.3507 1.1829 -3.7872
H -1.7669 0.0801 -0.1257
H -2.7224 -1.1413 0.7636
H -2.7055 -1.0386 -1.0482
H -2.3956 -3.6112 -0.2335
H -0.6918 -5.3820 -0.4210
H 1.7067 -4.7873 -0.5662
H 2.3801 -2.4419 -0.4549
H 4.8173 1.9770 -1.5202
H 6.1836 1.7208 -2.6980
H 6.3009 2.9239 -1.3338
H 8.4984 1.0893 -0.9216
H 8.5022 -0.9080 0.8409
H 7.6299 -1.7808 2.8413
H 6.8554 -3.6346 4.2640
H 4.7243 -4.7929 3.7517
H 3.3112 -4.0129 1.8654
H 4.0400 -1.9792 0.5371
