84
 
P 1.0163 -0.0182 0.0970
C 0.1589 1.6646 0.2766
C -1.3552 1.5862 0.2777
C 0.5747 2.3070 1.6264
C 0.6080 2.6623 -0.8167
C 0.4747 -0.5012 -1.6351
C 0.7018 0.2466 -2.8191
C 0.1273 -0.1312 -4.0477
C -0.6172 -1.3017 -4.1554
C -0.7880 -2.1056 -3.0330
C -0.2664 -1.7040 -1.7877
C 0.4613 -1.1088 1.4606
C -0.9154 -1.3773 1.6412
C -1.3674 -2.1892 2.6846
C -0.4514 -2.7921 3.5410
C 0.9149 -2.5634 3.3643
C 1.3667 -1.7082 2.3473
Pt 3.4763 -0.0182 0.0970
C 5.6263 -0.0182 0.0970
N 6.3870 1.1492 0.0404
C 6.0166 2.5843 0.0834
C 4.8046 2.9671 0.6816
C 3.9994 2.0098 1.4109
C 4.3409 4.2797 0.7025
C 5.1076 5.3046 0.1958
C 4.5917 6.7096 0.2777
C 6.3647 5.0069 -0.3310
C 6.8402 3.6723 -0.3944
C 8.2210 3.5023 -0.9587
C 7.6480 0.7116 0.0686
C 7.6814 -0.6274 0.1223
N 6.4390 -1.1617 0.1188
C 6.1130 -2.6356 0.0626
C 7.0529 -3.7512 0.1217
C 8.5577 -3.7433 0.1392
C 6.5732 -5.0930 0.1347
C 5.2196 -5.3945 0.0709
C 4.6589 -6.7735 0.1195
C 4.3367 -4.3818 -0.0812
C 4.7690 -3.0672 -0.1244
C 3.7102 -2.1544 -0.3152
H -1.7041 1.0827 1.1929
H -1.7066 1.0803 -0.6418
H -1.7829 2.6090 0.3344
H 0.3249 1.6787 2.5036
H 0.1416 3.3212 1.7535
H 1.6267 2.5103 1.6870
H 0.1342 2.4395 -1.7791
H 1.7189 2.7164 -0.9039
H 0.2375 3.6863 -0.6069
H 1.2931 1.1399 -2.8328
H 0.2576 0.4873 -4.9279
H -1.0487 -1.5883 -5.1118
H -1.3430 -3.0336 -3.1338
H -0.4532 -2.3512 -0.9435
H -1.6644 -0.9774 0.9807
H -2.4296 -2.3614 2.8196
H -0.8029 -3.4384 4.3365
H 1.6230 -3.0467 4.0236
H 2.4179 -1.5230 2.2639
H 4.6340 1.2312 1.8732
H 3.2267 1.7838 0.6592
H 3.6229 2.4700 2.3468
H 3.3807 4.5036 1.1582
H 3.5688 6.7408 0.7180
H 4.5408 7.1531 -0.7363
H 5.2590 7.3068 0.9315
H 6.9796 5.8274 -0.6834
H 8.6611 4.4526 -1.3198
H 8.2004 2.7786 -1.7990
H 8.9119 3.2169 -0.1436
H 8.5523 1.2659 0.0964
H 8.6366 -1.0432 0.1456
H 9.1272 -2.8517 0.0444
H 8.8982 -4.3072 -0.7553
H 8.9189 -4.2273 1.0659
H 7.2668 -5.9220 0.1948
H 5.4589 -7.5318 0.1714
H 4.0425 -6.9337 -0.7924
H 3.9957 -6.8602 1.0106
H 3.2726 -4.6068 -0.1563
H 2.7678 -2.5201 -0.7684
H 4.1073 -1.4958 -1.1381
H 3.5200 -2.2528 0.7486
