90
 
P 1.0524 -0.0550 0.0651
C 0.0257 1.5614 0.3037
C 0.1110 2.3627 1.6532
C 1.4898 2.9957 1.9425
C 1.9687 3.8785 0.7725
C 1.8860 3.0901 -0.5361
C 0.4289 2.5939 -0.7330
C 0.6411 -0.4563 -1.8281
C 1.2046 0.4019 -3.0298
C 2.7212 0.3466 -3.0750
C 3.0806 -1.0667 -3.5026
C 2.4708 -2.0554 -2.4883
C 0.9929 -1.9241 -2.2549
C 0.4860 -1.1989 1.4621
C -0.9021 -1.5595 1.5822
C -1.9927 -1.1290 0.6726
C -1.3701 -2.4155 2.5783
C -0.5233 -2.9965 3.4884
C -1.1226 -3.9443 4.5003
C 0.8477 -2.7026 3.4141
C 1.3753 -1.8122 2.4147
C 2.8752 -1.5658 2.3935
Pt 3.5124 -0.0550 0.0651
P 5.9724 -0.0550 0.0651
C 6.5782 -0.4670 1.7741
C 7.3920 -1.5609 2.1467
C 7.6224 -1.8524 3.5125
C 7.0547 -1.0710 4.5227
C 6.2685 0.0226 4.1801
C 6.0330 0.3209 2.8276
C 6.4320 -1.5068 -1.0228
C 5.4136 -2.2924 -1.4931
C 5.5645 -3.2990 -2.4621
C 6.8256 -3.5885 -2.9420
C 7.9163 -2.8762 -2.4366
C 7.7285 -1.8286 -1.4933
C 6.5299 1.6154 -0.4529
C 6.1415 2.1128 -1.7006
C 6.6215 3.3499 -2.1451
C 7.4950 4.0921 -1.3535
C 7.8668 3.5916 -0.1050
O 8.6362 4.2311 0.5942
N 7.3769 2.3727 0.3263
H -1.0403 1.3386 0.1796
H -0.2265 1.7672 2.5215
H -0.5992 3.2256 1.5635
H 2.2078 2.1754 2.1292
H 1.4374 3.6315 2.8584
H 3.0142 4.2164 0.9555
H 1.3348 4.7926 0.6866
H 2.6041 2.2441 -0.4703
H 2.1999 3.7268 -1.3926
H 0.2402 2.1133 -1.6253
H -0.2824 3.4408 -0.7993
H -0.4572 -0.4691 -1.9021
H 0.9370 1.4351 -3.2247
H 0.7833 -0.0226 -3.9728
H 3.1702 0.6266 -2.0709
H 3.0930 1.0527 -3.8496
H 4.1863 -1.1365 -3.5737
H 2.6856 -1.2799 -4.5256
H 2.7572 -1.7617 -1.5001
H 2.7312 -3.0954 -2.7654
H 0.6770 -2.6744 -1.4939
H 0.5036 -2.2076 -3.2143
H -1.6154 -0.5867 -0.1729
H -2.7214 -0.5230 1.2524
H -2.5033 -2.0224 0.2514
H -2.4306 -2.6571 2.6252
H -2.2306 -4.0333 4.3802
H -0.9361 -3.5837 5.5306
H -0.7060 -4.9616 4.3550
H 1.4924 -3.1867 4.1419
H 3.3457 -2.1451 3.2353
H 3.1040 -0.5054 2.5505
H 3.3395 -1.8776 1.4467
H 7.8275 -2.2168 1.4133
H 8.2236 -2.7049 3.8023
H 7.2133 -1.3183 5.5710
H 5.8209 0.6223 4.9694
H 5.3772 1.1567 2.6172
H 4.5287 -2.0611 -1.0454
H 4.7280 -3.8653 -2.8520
H 6.9447 -4.3726 -3.6874
H 8.8992 -3.1337 -2.8024
H 8.5919 -1.2770 -1.1677
H 5.4846 1.5390 -2.3339
H 6.3277 3.7295 -3.1143
H 7.8806 5.0429 -1.7130
H 7.6924 2.0304 1.2619
