53
 
P 0.9582 -0.0886 -0.0202
C 0.5070 -1.2557 -1.3481
C -0.4333 -0.9714 -2.3585
C -0.8609 -1.9716 -3.2359
C -0.3656 -3.2700 -3.1205
C 0.5720 -3.5698 -2.1323
C 1.0064 -2.5707 -1.2517
C 0.4703 -0.4459 1.6879
C -0.1671 -1.6676 1.9780
C -0.6599 -1.9284 3.2611
C -0.5233 -0.9728 4.2680
C 0.1424 0.2279 4.0022
C 0.6479 0.4900 2.7190
C 0.0451 1.4073 -0.4925
C 0.5374 1.9698 -1.8080
C -0.3568 2.7989 -2.5088
C -0.0406 3.2752 -3.7772
C 1.1809 2.9410 -4.3594
C 2.1088 2.1543 -3.6594
C 1.8150 1.6615 -2.3757
Pt 3.4182 -0.0886 -0.0202
N 5.5182 -0.0886 -0.0202
C 6.1877 -0.4516 1.1004
O 5.4991 -0.8661 2.1900
C 4.1152 -0.9256 2.2384
C 7.5890 -0.3601 1.1216
C 8.2636 0.1071 -0.0151
C 7.5417 0.4642 -1.1550
C 6.1525 0.3564 -1.1361
H -0.8914 -0.0064 -2.4632
H -1.6025 -1.7431 -3.9897
H -0.7217 -4.0458 -3.7871
H 0.9407 -4.5841 -2.0347
H 1.7041 -2.8401 -0.4673
H -0.3043 -2.4185 1.2123
H -1.1666 -2.8634 3.4705
H -0.9359 -1.1636 5.2521
H 0.2471 0.9624 4.7901
H 1.1409 1.4327 2.5277
H 0.2883 2.1813 0.2720
H -1.0501 1.2468 -0.4597
H -1.3198 3.0557 -2.0802
H -0.7552 3.8895 -4.3141
H 1.4043 3.2972 -5.3575
H 3.0531 1.9163 -4.1281
H 2.5887 1.0276 -1.8552
H 3.8091 -1.3045 3.2320
H 3.7185 -1.5995 1.4607
H 3.6709 0.0723 2.0841
H 8.1517 -0.6269 2.0063
H 9.3425 0.2014 -0.0145
H 8.0484 0.8340 -2.0382
H 5.5693 0.6473 -2.0006
