66
 
P 0.9136 -0.0173 -0.0472
O 0.3675 0.1849 1.5604
C 0.8492 -0.7708 2.4516
C 0.3734 -0.3357 3.8383
O 0.5642 1.0196 -1.3594
C -0.8341 1.2458 -1.3502
C -1.2195 2.2402 -2.4313
C 0.0308 -1.5233 -0.5229
C -1.1695 -1.9406 0.0427
C -1.7876 -3.1084 -0.4203
C -1.2087 -3.8674 -1.4458
C -0.0025 -3.4631 -2.0155
C 0.6150 -2.2946 -1.5596
Pt 3.3736 -0.0173 -0.0472
P 5.8336 -0.0173 -0.0472
C 6.4474 0.2984 1.6162
C 5.4401 0.5156 2.5805
C 5.7622 0.8788 3.8874
C 7.0989 1.0307 4.2481
C 8.1094 0.8059 3.3016
C 7.7888 0.4386 1.9816
C 6.2226 -1.7443 -0.3845
C 5.8229 -2.2180 -1.6519
C 6.1300 -3.5159 -2.0634
C 6.8500 -4.3558 -1.2163
C 7.2743 -3.8894 0.0341
C 6.9663 -2.5853 0.4528
C 6.4328 1.3386 -1.0929
C 5.9528 2.6612 -0.6320
C 6.8877 3.6558 -0.2860
C 6.4522 4.9023 0.1523
C 5.0841 5.1650 0.2360
C 4.1470 4.1788 -0.1223
C 4.5714 2.9110 -0.5562
H 1.9590 -0.8195 2.4422
H 0.3924 -1.7566 2.2367
H 0.8246 0.6429 4.1160
H 0.6467 -1.0918 4.5997
H -0.7342 -0.2105 3.8427
H -1.1684 1.6635 -0.3728
H -1.3953 0.3142 -1.5840
H -0.7117 3.2105 -2.2586
H -2.3202 2.3997 -2.4063
H -0.9433 1.8436 -3.4310
H -1.6264 -1.3552 0.8232
H -2.7227 -3.4213 0.0153
H -1.6958 -4.7669 -1.8008
H 0.4474 -4.0526 -2.8104
H 1.5544 -2.0001 -2.0219
H 4.3905 0.4256 2.3164
H 4.9748 1.0582 4.6129
H 7.3464 1.3309 5.2594
H 9.1412 0.9364 3.5933
H 8.5716 0.2963 1.2527
H 5.2857 -1.5734 -2.3406
H 5.8189 -3.8657 -3.0422
H 7.0887 -5.3627 -1.5362
H 7.8533 -4.5392 0.6744
H 7.3282 -2.2412 1.4077
H 6.0872 1.1617 -2.1336
H 7.5448 1.2925 -1.1008
H 7.9551 3.4691 -0.3523
H 7.1776 5.6614 0.4267
H 4.7567 6.1370 0.5822
H 3.0935 4.4043 -0.0545
H 3.8473 2.1078 -0.8262
