36
 
P 0.9300 -0.0229 0.0676
C -0.0053 1.3655 0.7682
C 0.4422 0.0460 -1.6776
C 0.4443 -1.3865 1.1595
Pt 3.3900 -0.0229 0.0676
P 5.8500 -0.0229 0.0676
C 6.7583 1.0524 1.2263
C 6.3184 -1.6621 0.6901
C 6.3730 0.5353 -1.6027
C 5.8465 1.9427 -1.8889
C 7.9162 0.5109 -1.6919
C 5.8113 -0.4519 -2.6410
H -1.0993 1.2567 0.7132
H 0.3276 2.2879 0.2384
H 0.3275 1.4878 1.8248
H -0.6690 0.0176 -1.7283
H 0.8264 -0.8619 -2.1883
H 0.8192 0.9585 -2.1750
H -0.6670 -1.4451 1.1673
H 0.8214 -1.2444 2.1890
H 0.8297 -2.3359 0.7322
H 6.3986 0.8135 2.2519
H 6.4381 2.1021 1.0422
H 7.8544 0.9654 1.1890
H 5.9331 -1.8452 1.7095
H 7.4296 -1.7276 0.6885
H 5.9370 -2.4315 -0.0134
H 6.2584 2.6742 -1.1652
H 4.7362 1.9516 -1.8231
H 6.1555 2.2638 -2.9074
H 8.3797 1.2116 -0.9690
H 8.2625 0.8106 -2.7031
H 8.3097 -0.5091 -1.4827
H 4.7021 -0.4781 -2.6015
H 6.1911 -1.4812 -2.4535
H 6.1227 -0.1604 -3.6678
