39
 
P 1.2750 0.0000 0.0000
O 0.4313 1.1738 0.9455
C -0.9633 1.0898 0.8774
C -1.4021 -0.0400 -0.0334
C -2.9330 -0.0896 -0.0737
C -0.7797 0.2642 -1.4500
O 0.6277 0.5410 -1.4689
O 0.6263 -1.3202 0.8402
C -0.7809 -1.3602 0.5645
Pt 3.7350 0.0003 -0.0005
N 5.8350 0.0006 -0.0009
C 6.2980 1.2815 0.5510
C 6.2378 -1.0319 0.9705
C 6.3954 -0.0725 -1.3239
C 5.6859 0.4894 -2.4005
C 6.2800 0.5579 -3.6777
C 7.5675 0.0490 -3.8900
C 8.2719 -0.5229 -2.8320
C 7.7007 -0.5745 -1.5577
H -1.3452 2.0670 0.5081
H -1.3486 0.9373 1.9100
H -3.3335 0.8806 -0.4443
H -3.3336 -0.2468 0.9529
H -3.2841 -0.9060 -0.7322
H -1.2817 1.1728 -1.8503
H -1.0010 -0.5755 -2.1402
H -1.2820 -1.5583 1.5376
H -1.0049 -2.2127 -0.1097
H 5.8866 1.4403 1.5744
H 5.9861 2.1482 -0.0669
H 7.4142 1.3020 0.6353
H 5.3299 -1.3434 1.5319
H 6.9345 -0.6655 1.7697
H 6.7222 -1.9179 0.5207
H 4.6859 0.8922 -2.2175
H 5.7573 1.0154 -4.5083
H 8.0279 0.1042 -4.8713
H 9.2724 -0.9079 -2.9940
H 8.2964 -0.9860 -0.7550
