33
 
P 1.2750 0.0000 0.0000
N 0.3874 1.4966 -0.3190
C -1.0510 1.3862 -0.3188
C -1.4548 -0.0413 0.0013
C -2.9815 -0.1003 0.0155
C -0.8632 -0.9716 -1.1421
N 0.6103 -0.8871 -1.3432
N 0.6061 -0.2514 1.5860
C -0.8670 -0.4074 1.4321
Pt 3.7350 0.0003 -0.0005
N 5.8350 0.0006 -0.0009
C 6.4782 -0.2871 1.1624
C 7.8708 -0.2020 1.2352
F 8.5142 -0.4728 2.3977
C 8.5903 0.1842 0.1027
C 7.9120 0.4720 -1.0844
C 6.5166 0.3765 -1.1162
H 0.7338 1.8921 -1.2249
H -1.4447 1.7071 -1.3111
H -1.4394 2.1002 0.4398
H -3.3793 0.2181 -0.9739
H -3.3755 0.6027 0.7833
H -3.3290 -1.1253 0.2413
H -1.3507 -0.7183 -2.1109
H -1.1281 -2.0243 -0.9145
H 0.8676 -0.4087 -2.2363
H 0.8651 0.5510 2.2034
H -1.3552 0.2282 2.2048
H -1.1351 -1.4587 1.6643
H 5.9025 -0.5642 2.0358
H 9.6688 0.2685 0.1471
H 8.4613 0.7802 -1.9645
H 5.9748 0.6193 -2.0205
