41
 
P 1.2750 0.0000 0.0000
N 0.3872 -0.1470 -1.5226
C -1.0506 -0.1652 -1.4118
C -1.4544 -0.0040 0.0424
C -2.9810 0.0031 0.1014
C -0.8625 -1.2419 0.8419
N 0.6109 -1.4323 0.7350
N 0.6068 1.5460 0.4349
C -0.8673 1.3779 0.5645
Pt 3.7350 0.0003 -0.0005
N 5.8350 0.0006 -0.0009
C 6.6690 0.0197 -1.0489
N 7.9589 0.0283 -0.6371
C 9.1465 0.0063 -1.4599
C 9.0544 -0.0304 -2.8670
C 10.2071 -0.1168 -3.6514
C 11.4646 -0.1611 -3.0482
C 11.5736 -0.1037 -1.6594
C 10.4273 -0.0188 -0.8699
C 7.9067 0.0261 0.7171
C 6.5909 0.0081 1.1044
H 0.7347 -1.0043 -2.0143
H -1.4413 -1.1180 -1.8388
H -1.4414 0.6651 -2.0392
H -3.3780 -0.9459 -0.3230
H -3.3747 0.8428 -0.5142
H -3.3289 0.1161 1.1447
H -1.3498 -2.1774 0.4848
H -1.1271 -1.1299 1.9133
H 0.8690 -2.2685 0.1636
H 0.8666 2.2483 -0.2945
H -1.3524 2.2153 0.0138
H -1.1399 1.4949 1.6333
H 6.3282 0.0217 -2.0739
H 8.1002 -0.0080 -3.3720
H 10.1227 -0.1597 -4.7293
H 12.3552 -0.2416 -3.6559
H 12.5470 -0.1354 -1.1881
H 10.5581 0.0121 0.2007
H 8.7469 0.0290 1.3950
H 6.2075 -0.0001 2.1159
