54
 
P 1.0082 -0.0657 0.0750
C 0.2679 0.2295 -1.5432
C -0.9424 -0.3084 -1.9932
C -1.3380 -0.1032 -3.3252
C -0.5378 0.6430 -4.2011
C 0.6559 1.2011 -3.7486
C 1.0572 0.9917 -2.4295
C 0.6025 -1.8159 0.1918
C 0.9390 -2.7843 -0.7585
C 0.5662 -4.1223 -0.5435
C -0.1277 -4.4925 0.6174
C -0.4657 -3.5276 1.5635
C -0.1086 -2.1983 1.3480
C 0.5638 1.2162 1.2897
C 0.9542 1.0939 2.6583
O 1.7118 0.0358 3.0690
C 2.1605 -0.1744 4.3661
C 0.5127 2.0637 3.5883
C -0.2980 3.1189 3.1849
C -0.6768 3.2353 1.8501
C -0.2498 2.2937 0.9080
Pt 3.4682 -0.0657 0.0750
C 5.6182 -0.0657 0.0750
N 6.4696 0.8037 0.6841
C 6.1905 1.9788 1.4984
C 7.7155 0.3752 0.3816
Cl 9.2145 1.1303 0.9086
C 7.6198 -0.7450 -0.4043
Cl 8.9719 -1.6661 -1.0523
N 6.3130 -1.0183 -0.5919
C 5.7542 -2.1301 -1.3537
H -1.5554 -0.9052 -1.3352
H -2.2578 -0.5375 -3.6882
H -0.8359 0.7850 -5.2326
H 1.2796 1.7797 -4.4223
H 2.0023 1.4164 -2.1048
H 1.4737 -2.5065 -1.6548
H 0.8157 -4.8782 -1.2735
H -0.4063 -5.5250 0.7878
H -1.0027 -3.8060 2.4643
H -0.3861 -1.4661 2.0982
H 2.6993 -1.1414 4.4295
H 1.3076 -0.2162 5.0804
H 2.8556 0.6383 4.6717
H 0.7727 2.0054 4.6381
H -0.6404 3.8421 3.9156
H -1.3164 4.0534 1.5495
H -0.5777 2.3993 -0.1151
H 5.1016 2.1444 1.6095
H 6.6586 2.8683 1.0203
H 6.6580 1.8492 2.5002
H 6.5636 -2.7569 -1.7874
H 5.1263 -1.7457 -2.1827
H 5.1433 -2.7704 -0.6853
