26
 
C 1.0240 -0.6530 -0.0550
N 1.0449 0.6209 -0.1171
C 2.2503 1.3961 -0.2679
C -0.2799 1.1746 0.0641
C -1.1959 -0.0553 -0.0489
N -0.2780 -1.1437 0.1514
C -0.6475 -2.5095 0.4315
Pt 2.7802 -1.8697 -0.2955
N 4.4956 -3.0582 -0.5304
C 4.5748 -4.3927 -0.6491
O 5.8282 -4.7781 -0.7680
C 6.5802 -3.6971 -0.7249
C 5.7546 -2.6052 -0.5781
H 3.1391 0.7157 -0.3660
H 2.3730 2.0511 0.6226
H 2.1616 2.0427 -1.1673
H -0.5572 1.9436 -0.6877
H -0.3223 1.6016 1.0909
H -1.5733 -0.1563 -1.0927
H -2.0432 -0.0180 0.6669
H -1.7543 -2.5969 0.5047
H -0.2188 -2.8084 1.4126
H -0.2742 -3.1858 -0.3616
H 3.7231 -5.0588 -0.6508
H 7.6600 -3.6843 -0.7902
H 6.0427 -1.5650 -0.5018
