36
 
C 0.9010 -0.6430 -0.0020
N -0.3441 -1.1098 0.0018
C -0.6927 -2.5303 0.0157
C 0.6240 -3.4011 -0.0134
C -1.4908 -2.8234 1.3019
C -1.5766 -2.8310 -1.2132
C -1.1432 -0.0167 0.0056
C -0.3332 1.1061 -0.0033
N 0.9527 0.6901 -0.0052
C 2.1910 1.4754 -0.0155
C 2.2120 2.3597 1.2418
C 3.4295 0.5105 -0.0128
C 2.2125 2.3769 -1.2703
Pt 2.6584 -1.8814 -0.0135
C 4.4159 -3.1199 -0.0250
O 5.4039 -3.6632 -0.0290
H 1.2695 -3.2148 0.8598
H 1.2488 -3.2006 -0.8972
H 0.3363 -4.4726 -0.0154
H -0.8629 -2.6148 2.1939
H -1.8226 -3.8820 1.3356
H -2.3968 -2.1785 1.3674
H -1.0265 -2.6062 -2.1507
H -2.4983 -2.2040 -1.2040
H -1.8964 -3.8937 -1.2279
H -2.2257 -0.0256 0.0136
H -0.6590 2.1387 -0.0080
H 2.1575 1.7278 2.1533
H 1.3344 3.0448 1.2511
H 3.1329 2.9771 1.2787
H 3.4307 -0.1380 0.8792
H 4.3701 1.0930 -0.0085
H 3.4423 -0.1485 -0.8988
H 1.3537 3.0863 -1.2652
H 2.1406 1.7723 -2.1993
H 3.1450 2.9790 -1.3078
