39
 
C 0.9010 -0.6430 -0.0020
N -0.3802 -1.0785 0.0413
C -0.8782 -2.4381 0.1075
C -1.1597 0.0162 0.0273
C -0.3430 1.1237 -0.0250
N 0.9385 0.7018 -0.0398
C 2.1305 1.5308 -0.0978
Pt 2.6584 -1.8814 -0.0135
C 4.4159 -3.1199 -0.0250
N 4.3879 -4.3945 -0.0461
C 3.1836 -5.1818 0.0128
C 1.9447 -4.2929 0.0475
C 5.7243 -4.9468 -0.0699
C 6.6083 -3.7223 -0.3544
N 5.7312 -2.6253 -0.0425
C 6.1557 -1.2577 0.1642
C 4.9786 -0.3349 0.4857
H -0.0570 -3.1138 0.1264
H -1.4892 -2.6787 -0.7845
H -1.4488 -2.6013 1.0438
H -2.2423 0.0020 0.0560
H -0.6654 2.1558 -0.0504
H 1.8566 2.6065 -0.1279
H 2.7060 1.2852 -1.0142
H 2.7521 1.3440 0.8009
H 3.2132 -5.8190 0.9244
H 3.1347 -5.8437 -0.8787
H 1.9537 -3.6104 0.9108
H 1.0673 -4.9687 0.1191
H 1.8727 -3.6713 -0.8592
H 5.8730 -5.7307 -0.8431
H 5.9324 -5.3569 0.9433
H 6.8206 -3.6542 -1.4467
H 7.5545 -3.7472 0.2242
H 6.6903 -0.8867 -0.7352
H 6.8668 -1.2453 1.0218
H 4.3072 -0.2770 -0.3845
H 5.3791 0.6798 0.7037
H 4.4343 -0.6922 1.3845
