59
 
C 0.9010 -0.6430 -0.0020
N -0.3769 -1.1805 0.0733
C -0.8862 -2.6018 0.0897
C -0.0218 -3.7441 -0.0237
C 1.3830 -3.7037 -0.2602
C -0.4511 -5.0559 0.0103
C -1.7684 -5.3620 0.0909
C -2.1490 -6.8049 0.0700
C -2.6942 -4.3285 0.1470
C -2.2947 -2.9654 0.1503
C -3.4417 -1.9968 0.1759
C -1.1445 -0.0776 0.0372
C -0.3903 1.0383 -0.0682
N 0.9288 0.7532 -0.0804
C 2.0669 1.7735 -0.0708
C 1.9215 3.2297 -0.0104
C 0.6843 4.0858 0.0455
C 3.0737 4.0761 0.0211
C 4.3649 3.5763 0.0160
C 5.6133 4.3852 0.0352
C 4.5383 2.2523 -0.0155
C 3.4611 1.3998 -0.0624
C 3.9466 0.1075 -0.1405
Pt 2.6584 -1.8814 -0.0135
N 4.3750 -3.0911 -0.0247
C 4.4222 -4.2646 0.6888
C 5.6044 -5.0059 0.7893
C 6.7354 -4.5919 0.0990
C 6.6769 -3.4348 -0.6693
C 5.4958 -2.6806 -0.6956
H 1.4550 -2.9397 -1.0439
H 1.7958 -4.5139 -0.8851
H 1.7968 -3.8975 0.7471
H 0.2741 -5.8662 -0.0594
H -1.2487 -7.4627 0.0136
H -2.7609 -7.0018 -0.8310
H -2.6924 -7.0517 0.9995
H -3.7405 -4.5990 0.1764
H -4.4345 -2.4891 0.1959
H -3.4367 -1.4135 -0.7708
H -3.3889 -1.3736 1.0920
H -2.1978 0.0318 0.0593
H -0.9158 1.9360 -0.1187
H -0.3080 3.7024 0.0813
H 0.6873 4.7477 -0.8438
H 0.7330 4.6885 0.9749
H 2.9685 5.1500 0.0585
H 5.3922 5.4621 0.0533
H 6.2063 4.1282 -0.8740
H 6.2136 4.0924 0.9276
H 5.5662 1.8779 -0.0196
H 5.0145 -0.1280 -0.0631
H 3.6373 -0.1272 -1.2082
H 3.5111 -0.3612 0.7436
H 3.6045 -4.6092 1.2900
H 5.6474 -5.8890 1.4158
H 7.6532 -5.1646 0.1636
H 7.5469 -3.1193 -1.2309
H 5.4760 -1.7970 -1.3102
