31
 
C 0.9010 -0.6430 -0.0020
N 0.9196 0.6961 -0.0335
C 2.1089 1.5307 -0.0932
C -0.3703 1.0891 -0.0092
C -1.1633 -0.0459 0.0383
N -0.3508 -1.1221 0.0393
C -0.7221 -2.5293 0.0851
Pt 2.6584 -1.8814 -0.0135
C 4.4159 -3.1199 -0.0250
N 5.7249 -2.7444 -0.0533
C 6.3276 -1.4185 -0.0830
C 6.4398 -3.8916 -0.0539
Cl 8.1953 -4.0051 -0.0909
C 5.5736 -4.9536 -0.0222
Cl 6.0313 -6.6529 -0.0064
N 4.3147 -4.4715 -0.0045
C 3.0843 -5.2547 0.0343
H 3.0212 0.8858 -0.1080
H 2.1412 2.1986 0.7928
H 2.0820 2.1488 -1.0160
H -0.7105 2.1163 -0.0259
H -2.2447 -0.0813 0.0695
H -1.8267 -2.6404 0.1213
H -0.2808 -3.0017 0.9884
H -0.3333 -3.0465 -0.8171
H 5.5588 -0.6226 -0.0765
H 6.9584 -1.3264 -0.9958
H 6.9964 -1.3044 0.7996
H 3.3105 -6.3433 0.0481
H 2.4706 -5.0386 -0.8632
H 2.5109 -5.0097 0.9514
