52
 
P 1.0480 -0.0332 0.0812
C 0.2748 -1.6622 0.8844
C -1.2638 -1.7798 0.9270
C 0.7759 -2.9766 0.2153
C 0.7551 -1.8483 2.3446
C 0.5826 1.4900 1.2274
C 1.1955 1.4547 2.6439
C 1.0963 2.8332 0.6514
C -0.9519 1.7068 1.3909
C 0.5207 0.0064 -1.7827
C -1.0201 0.0211 -1.9414
C 1.0090 1.2943 -2.4822
C 1.0620 -1.1443 -2.6518
Pt 3.5080 -0.0332 0.0812
N 5.6080 -0.0332 0.0812
C 6.2512 0.9368 0.7842
C 7.6426 1.0434 0.7237
C 8.3616 0.1440 -0.0675
Cl 10.1060 0.2838 -0.1926
C 7.6826 -0.8544 -0.7730
C 6.2883 -0.9260 -0.6862
H -1.7257 -1.9563 -0.0414
H -1.7597 -0.9555 1.4171
H -1.5664 -2.6697 1.5182
H 0.3426 -3.1752 -0.7640
H 0.4060 -3.8648 0.7818
H 1.8845 -3.0559 0.1912
H 0.2737 -1.1533 3.0198
H 1.8653 -1.8624 2.4336
H 0.3900 -2.8094 2.7741
H 2.3012 1.4403 2.5987
H 0.8476 0.6781 3.3068
H 0.8714 2.3573 3.2121
H 2.1972 2.8352 0.5299
H 0.8294 3.6717 1.3394
H 0.5951 3.1423 -0.2713
H -1.4537 0.9180 1.9466
H -1.4690 1.9120 0.4358
H -1.1700 2.5937 2.0230
H -1.4989 0.8114 -1.3447
H -1.4726 -0.9451 -1.7262
H -1.3249 0.1986 -2.9940
H 0.5958 2.1968 -2.0331
H 0.6188 1.3396 -3.5266
H 2.1132 1.3539 -2.5361
H 0.6539 -2.1158 -2.3965
H 2.1688 -1.1788 -2.6432
H 0.7189 -1.0158 -3.7046
H 5.6765 1.6413 1.3710
H 8.1520 1.8270 1.2703
H 8.2266 -1.5532 -1.3954
H 5.7456 -1.6746 -1.2477
