61
 
C 1.0240 -0.6530 -0.0550
N 1.0269 0.6563 -0.1620
C 2.1555 1.6230 -0.2264
C 3.4375 1.3679 -0.8286
C 3.7479 0.1293 -1.5978
C 4.4809 2.3502 -0.7781
C 4.2848 3.5981 -0.1755
C 5.3243 4.6879 -0.0856
C 3.0688 3.8682 0.3861
C 2.0335 2.9335 0.3900
C 0.8516 3.4128 1.1567
C -0.3443 1.0937 -0.0345
C -1.1956 -0.1277 -0.1825
N -0.2952 -1.1967 0.1625
C -0.6980 -2.5640 0.4690
C 0.1435 -3.6770 0.1795
C 1.3645 -3.6160 -0.6270
C -0.1676 -4.9640 0.6020
C -1.3392 -5.2264 1.2757
C -1.6487 -6.6214 1.7057
C -2.2288 -4.1899 1.5245
C -1.9419 -2.8675 1.1393
C -3.0003 -1.8586 1.5054
Pt 2.7802 -1.8697 -0.2955
N 4.4956 -3.0582 -0.5304
C 4.9406 -3.8463 0.4910
C 6.1485 -4.5491 0.3693
C 6.8879 -4.4474 -0.8104
Cl 8.4216 -5.2886 -0.9706
C 6.4073 -3.6592 -1.8556
C 5.2038 -2.9649 -1.6933
H 2.8537 -0.4068 -1.9381
H 4.3914 -0.5275 -1.0105
H 4.2830 0.4252 -2.5220
H 5.4493 2.1608 -1.2295
H 6.2874 4.4015 -0.5464
H 5.4990 4.9399 0.9865
H 4.9445 5.6125 -0.5799
H 2.9388 4.8405 0.8564
H 0.9704 4.4104 1.6224
H 0.7424 2.7093 2.0058
H -0.0076 3.5207 0.4732
H -0.6539 1.8436 -0.7942
H -0.5170 1.4071 1.0092
H -1.5031 -0.2879 -1.2381
H -2.0682 0.0911 0.4385
H 1.3105 -2.7558 -1.3231
H 1.3927 -4.4322 -1.3792
H 2.1987 -3.7741 0.0772
H 0.5150 -5.7785 0.3790
H -0.8266 -7.3189 1.4329
H -2.5769 -6.9562 1.2017
H -1.7775 -6.6448 2.8065
H -3.1543 -4.4216 2.0364
H -3.8510 -2.2985 2.0643
H -3.4561 -1.4544 0.5763
H -2.5738 -1.0713 2.1626
H 4.3865 -3.9000 1.4173
H 6.5196 -5.1522 1.1885
H 6.9698 -3.5715 -2.7773
H 4.8399 -2.3416 -2.4979
