48
 
C -0.1639 -1.1566 0.0068
N 0.6777 -0.3427 -0.7770
C 1.6429 -0.7128 -1.8779
C 0.4994 0.9384 -0.2643
Cl 1.2232 2.5251 -0.6951
C -0.3934 0.8786 0.7758
Cl -0.9963 2.2384 1.7409
N -0.7835 -0.3919 0.9494
C -1.7704 -0.8008 1.9447
Pt -0.5214 -3.3504 0.0062
P -0.8720 -5.7944 -0.0431
N -0.6682 -6.4766 -1.6900
C -1.6363 -5.8287 -2.6101
C 0.6710 -6.2785 -2.2280
O -2.1860 -5.6408 0.9482
C -1.9639 -5.7701 2.2698
C -2.1373 -4.6463 3.0633
C -1.9480 -4.7136 4.4397
C -1.5770 -5.9104 5.0425
C -1.3963 -7.0498 4.2693
C -1.5790 -6.9934 2.8770
C -1.3712 -8.2192 2.0995
C -2.0053 -9.4140 2.4985
C -1.8751 -10.5791 1.7449
C -1.0555 -10.6042 0.6523
C -0.3253 -9.4962 0.3357
C -0.5069 -8.2392 0.9846
O 0.1080 -7.0951 0.5053
H 1.6677 -1.8027 -2.0987
H 2.7174 -0.4472 -1.6528
H 1.4352 -0.2011 -2.8468
H -2.1415 0.0782 2.5136
H -1.3405 -1.5080 2.6664
H -2.6588 -1.2363 1.4444
H -2.6460 -6.0687 -2.2694
H -1.4721 -6.2012 -3.6490
H -1.5119 -4.7144 -2.6504
H 1.5077 -6.5048 -1.5268
H 0.5858 -5.2727 -2.4570
H 0.8825 -6.5421 -3.2821
H -2.4186 -3.7156 2.6022
H -2.0963 -3.8356 5.0420
H -1.4308 -5.9525 6.1098
H -1.0944 -7.9684 4.7581
H -2.6358 -9.4446 3.3656
H -2.3787 -11.4844 2.0019
H -0.9393 -11.4718 0.0174
H 0.3164 -9.7247 -0.4870
