108
 
P 0.9221 0.0241 0.0578
C 0.1298 1.7691 0.5454
C -1.3862 1.8026 0.6861
C 0.7376 2.3607 1.8549
C 0.3691 2.8919 -0.4873
C 0.1618 -0.3748 -1.8553
C 0.4892 0.6469 -3.0096
C 0.6076 -1.6785 -2.6303
C -1.3813 -0.7073 -1.8508
C 0.1319 -1.1697 1.4199
C -1.3926 -1.2599 1.5892
C 0.3584 -2.5788 0.9828
C 0.7472 -0.9686 2.8347
Pt 3.3821 0.0241 0.0578
C 5.5321 0.0241 0.0578
N 6.3136 -1.0633 -0.0305
C 6.0342 -2.5671 -0.1277
C 4.7751 -3.2468 -0.1608
C 3.5715 -2.6284 0.2763
C 2.7760 -2.6655 -1.0187
C 3.1033 -3.5211 1.5090
C 4.5940 -4.6444 -0.5015
C 5.6158 -5.4676 -0.7210
C 6.8327 -4.9513 -0.5075
C 7.0542 -3.5760 -0.1493
C 8.4149 -3.3999 0.3703
C 8.4234 -4.3162 1.6631
C 9.3264 -3.5320 -0.8614
C 7.6923 -0.5415 -0.1039
C 7.6275 0.9471 -0.3213
N 6.2901 1.2507 0.0782
C 5.8543 2.5025 0.6256
C 4.6011 3.0437 0.2087
C 3.7089 2.4970 -0.9239
C 3.4080 3.6507 -1.9379
C 4.1305 1.4099 -1.9250
C 4.1312 4.2198 0.8496
C 4.8510 4.8521 1.8429
C 6.0734 4.3635 2.2287
C 6.6360 3.2123 1.6465
C 8.0600 2.8139 2.1368
C 8.7041 3.7052 3.1938
C 8.1498 1.3780 2.6960
H -1.7415 1.3630 1.5953
H -1.8610 1.4396 -0.2131
H -1.7604 2.8363 0.8177
H 0.4706 1.8364 2.7693
H 0.3297 3.3797 2.0445
H 1.8442 2.4595 1.8130
H -0.0693 2.6385 -1.4198
H 1.3514 3.3003 -0.5839
H -0.1487 3.8319 -0.2230
H 1.5265 0.5358 -3.3455
H 0.3288 1.7134 -3.0370
H -0.1050 0.3680 -3.9087
H 1.6556 -1.6109 -2.9562
H 0.1115 -1.8157 -3.6189
H 0.3519 -2.6331 -2.1273
H -2.1285 0.0103 -1.5302
H -1.5668 -1.6744 -1.3396
H -1.7534 -0.9518 -2.8732
H -1.9134 -1.4322 0.6450
H -1.8378 -0.4695 2.1560
H -1.6597 -2.1288 2.2378
H -0.0006 -2.9302 -0.0002
H 0.1652 -3.3684 1.7457
H 1.3190 -2.3673 0.8986
H 0.3645 -0.0674 3.3080
H 1.8593 -0.9573 2.8406
H 0.4146 -1.7725 3.5276
H 3.8202 -1.7116 0.7890
H 2.3995 -3.6707 -1.3729
H 3.3265 -2.2151 -1.8672
H 1.9562 -2.0860 -0.8722
H 2.6415 -4.4716 1.1503
H 2.3501 -3.2464 2.2616
H 3.9107 -3.5037 2.2518
H 3.6371 -5.1533 -0.5530
H 5.4552 -6.5222 -0.9266
H 7.6211 -5.6872 -0.5344
H 8.6922 -2.4843 0.8376
H 7.9787 -5.3360 1.5780
H 7.7145 -3.8552 2.4035
H 9.3950 -4.4607 2.1483
H 9.3861 -4.5806 -1.1391
H 10.3184 -3.0740 -0.6970
H 8.8860 -3.0373 -1.7800
H 8.3832 -0.9269 -0.8743
H 8.1422 -0.6563 0.8900
H 7.7837 1.3287 -1.3488
H 8.4763 1.3647 0.1980
H 2.8545 2.0855 -0.3907
H 4.3720 3.9658 -2.3933
H 2.9249 4.5584 -1.5354
H 2.7364 3.3045 -2.7614
H 5.0111 1.7089 -2.5146
H 3.2715 1.1551 -2.5421
H 4.2596 0.3943 -1.6842
H 3.1937 4.6884 0.5843
H 4.4730 5.7501 2.3177
H 6.5682 4.9267 3.0015
H 8.7281 2.9880 1.2682
H 8.0873 3.6618 4.1160
H 8.7931 4.7441 2.8135
H 9.7269 3.3387 3.4292
H 7.7463 1.2397 3.7097
H 9.2091 1.0125 2.6524
H 7.4861 0.7248 2.1595
