62
 
P 0.9026 0.0167 -0.0152
C 0.1285 0.3331 -1.8026
C -1.4107 0.4031 -1.9278
C 0.6591 1.6359 -2.4708
C 0.5881 -0.7494 -2.8093
C 0.3758 -1.7885 0.5566
C 0.9519 -2.9142 -0.2958
C 0.8767 -2.1301 1.9869
C -1.1538 -2.0280 0.6087
C 0.3758 1.4992 1.1170
C -1.1659 1.6231 1.2274
C 0.8674 1.3012 2.5671
C 0.9156 2.8793 0.7033
Pt 3.3626 0.0167 -0.0152
N 5.4626 0.0167 -0.0152
C 6.2000 -1.0245 0.0263
C 5.6761 -2.4053 0.0034
C 4.4894 -2.7004 -0.6885
C 4.0354 -4.0327 -0.7459
C 4.7048 -5.0426 -0.0587
C 5.8697 -4.7468 0.6450
C 6.3720 -3.4413 0.6520
N 7.5697 -0.6989 0.0585
C 7.6701 0.7014 -0.2579
C 6.2523 1.2187 0.0150
H -1.8496 1.3069 -1.5117
H -1.9398 -0.4601 -1.5485
H -1.7059 0.4526 -2.9972
H 0.2490 2.5539 -2.0538
H 0.2918 1.7102 -3.5223
H 1.7685 1.6774 -2.5179
H 0.0749 -1.6909 -2.6525
H 1.6971 -0.8429 -2.8604
H 0.2404 -0.5180 -3.8422
H 2.0201 -2.8155 -0.2148
H 0.6648 -2.9855 -1.3325
H 0.6346 -3.9111 0.0893
H 1.9794 -2.0545 2.0739
H 0.5960 -3.1781 2.2519
H 0.3779 -1.5661 2.7792
H -1.6155 -2.0122 -0.3755
H -1.6756 -1.3745 1.3251
H -1.3877 -3.0582 0.9529
H -1.6480 0.6818 1.5205
H -1.6258 2.0156 0.3232
H -1.4674 2.3687 1.9922
H 0.4504 0.4101 3.0326
H 0.4824 2.1187 3.2218
H 1.9721 1.3005 2.6404
H 0.4987 3.2496 -0.2272
H 2.0225 2.8900 0.6683
H 0.5751 3.6506 1.4326
H 3.9384 -1.9109 -1.2019
H 3.1464 -4.2945 -1.3061
H 4.3184 -6.0547 -0.0733
H 6.3852 -5.5333 1.1800
H 7.2842 -3.2369 1.1954
H 8.3407 -1.3767 -0.0282
H 7.8755 0.7606 -1.3525
H 8.4527 1.2533 0.3007
H 5.9441 1.9659 -0.7467
H 6.1638 1.6433 1.0385
