57
 
C 2.3270 0.0340 0.0000
N 1.5381 1.1272 -0.0659
C 2.0038 2.5220 -0.0572
C 1.5374 3.2275 1.2380
C 3.5544 2.6011 -0.1305
C 0.2667 0.6430 -0.0349
C 0.2948 -0.7350 0.0227
C -0.8930 -1.4904 0.0231
C -2.1176 -0.8112 0.0034
C -2.1512 0.5932 -0.0111
C -0.9567 1.3378 -0.0398
N 1.5778 -1.1692 0.0786
C 1.9529 -2.6634 0.1683
C 2.7673 -3.1647 -1.0279
C 3.8546 -2.3757 -1.2734
C 4.5108 -2.4133 -2.4857
C 4.2187 -3.4092 -3.4132
C 3.2863 -4.4027 -3.0937
C 2.5098 -4.2672 -1.9150
Pt 4.4769 0.0580 0.0014
N 6.5767 0.0815 0.0028
C 7.2905 -0.7352 0.8675
N 6.6580 -1.6091 1.8317
C 7.3713 -2.7533 2.3823
C 5.3112 -1.4253 2.3424
C 8.6998 -0.5809 0.9334
C 9.3637 0.2646 0.0635
C 8.6367 0.9811 -0.8720
C 7.2351 0.9247 -0.8487
H 1.5695 3.0388 -0.9402
H 2.0088 2.7614 2.1308
H 0.4426 3.1740 1.3900
H 1.8150 4.3021 1.2140
H 4.0170 2.1566 0.7703
H 3.8392 3.6792 -0.1638
H 3.9567 2.0884 -1.0234
H -0.9131 -2.5688 0.0380
H -3.0432 -1.3750 0.0067
H -3.1094 1.0979 -0.0070
H -1.0164 2.4147 -0.0627
H 1.0556 -3.3159 0.2122
H 2.5168 -2.8486 1.1011
H 4.1215 -1.7069 -0.5005
H 5.2355 -1.6456 -2.6895
H 4.7397 -3.4139 -4.3612
H 3.1446 -5.2238 -3.7980
H 1.7309 -5.0085 -1.7488
H 8.3399 -2.9414 1.8830
H 6.7691 -3.6653 2.2050
H 7.5376 -2.6282 3.4755
H 4.8060 -0.5351 1.9516
H 5.3521 -1.3237 3.4555
H 4.7077 -2.3245 2.1112
H 9.3071 -1.0826 1.6760
H 10.4444 0.3553 0.1182
H 9.1672 1.5850 -1.5968
H 6.6810 1.4743 -1.5958
