52
 
C 1.0240 -0.6530 -0.0550
N 0.1541 -0.4966 -0.9776
C 0.2776 -1.0358 -2.3074
C -0.9189 0.3667 -0.5460
C -0.6956 0.4729 0.9634
N 0.6767 0.0493 1.1233
C 1.4639 0.2492 2.3039
C 0.9096 0.9423 3.4027
C 1.6612 1.2007 4.5469
C 2.9828 0.7708 4.6235
C 3.5548 0.0791 3.5504
C 2.8047 -0.1826 2.3904
Pt 2.7802 -1.8697 -0.2955
P 4.7896 -3.2619 -0.5706
C 6.3680 -2.4443 -0.9614
C 5.1524 -3.9856 1.0448
C 4.3258 -3.7665 2.1540
C 4.6210 -4.3863 3.3802
C 5.7322 -5.2302 3.4994
C 6.5429 -5.4710 2.3921
C 6.2542 -4.8557 1.1740
C 4.6254 -4.3185 -2.0363
C 3.4493 -4.3635 -2.7961
C 3.3546 -5.2459 -3.8888
C 4.4290 -6.0786 -4.2269
C 5.6007 -6.0368 -3.4768
C 5.6968 -5.1680 -2.3899
H 1.2135 -1.6462 -2.3946
H 0.3055 -0.1954 -3.0370
H -0.6130 -1.6607 -2.5325
H -1.9355 -0.0220 -0.7649
H -0.7680 1.3571 -1.0326
H -1.3179 -0.2821 1.4970
H -0.9291 1.4966 1.3215
H -0.1084 1.3012 3.3855
H 1.2142 1.7422 5.3718
H 3.5596 0.9811 5.5159
H 4.5855 -0.2437 3.6219
H 3.2797 -0.6999 1.5723
H 6.5607 -1.6789 -0.1788
H 6.2120 -1.8855 -1.9133
H 7.2332 -3.1171 -1.0635
H 3.4535 -3.1318 2.0661
H 3.9878 -4.2208 4.2410
H 5.9638 -5.7063 4.4444
H 7.3940 -6.1379 2.4733
H 6.8963 -5.0765 0.3371
H 2.6085 -3.7340 -2.5327
H 2.4475 -5.2954 -4.4749
H 4.3576 -6.7610 -5.0659
H 6.4346 -6.6823 -3.7315
H 6.6177 -5.1747 -1.8306
