75
 
P 0.9635 -0.0754 0.0546
C 0.1858 1.2221 -1.2107
C -1.3550 1.3302 -1.2897
C 0.6966 2.6736 -0.9743
C 0.6689 0.9445 -2.6553
C 0.5075 -1.8780 -0.5686
C 1.1243 -2.2803 -1.9274
C 1.0204 -2.9720 0.4014
C -1.0252 -2.1373 -0.6621
C 0.4449 0.4633 1.8396
C -1.0959 0.5021 2.0037
C 0.9419 -0.5476 2.8950
C 0.9957 1.8229 2.3093
Pt 3.4235 -0.0754 0.0546
P 5.8835 -0.0754 0.0546
C 6.5839 0.2439 1.6976
C 7.3873 -0.6650 2.4104
C 7.6599 -0.4464 3.7711
C 7.1333 0.6700 4.4300
Cl 7.3928 0.8874 6.1537
C 6.3628 1.5924 3.7217
C 6.0927 1.3820 2.3660
C 6.2396 -1.8077 -0.3960
C 5.1880 -2.6990 -0.6596
C 5.4492 -4.0202 -1.0553
C 6.7661 -4.4675 -1.1943
Cl 7.0887 -6.1264 -1.6784
C 7.8241 -3.5873 -0.9535
C 7.5652 -2.2633 -0.5642
C 6.3362 1.2797 -1.0575
C 5.3463 2.0364 -1.7010
C 5.6995 2.9726 -2.6844
C 7.0419 3.1628 -3.0294
Cl 7.4723 4.2866 -4.3098
C 8.0374 2.4356 -2.3707
C 7.6882 1.4976 -1.3882
H -1.8153 1.7985 -0.4209
H -1.8609 0.3964 -1.5058
H -1.6489 2.0049 -2.1227
H 0.2568 3.1646 -0.1065
H 0.3454 3.3505 -1.7896
H 1.8057 2.7412 -0.9614
H 0.1716 0.0842 -3.0924
H 1.7792 0.9021 -2.7294
H 0.3328 1.7431 -3.3568
H 2.2272 -2.2327 -1.8983
H 0.7630 -1.7525 -2.7992
H 0.8240 -3.3244 -2.1790
H 2.1169 -2.9285 0.5352
H 0.7695 -3.9861 0.0074
H 0.5075 -2.9781 1.3684
H -1.5220 -1.5617 -1.4436
H -1.5442 -2.0192 0.3062
H -1.2391 -3.1841 -0.9693
H -1.5788 -0.4331 1.6818
H -1.5502 1.3540 1.4986
H -1.3943 0.6570 3.0620
H 0.5104 -1.5398 2.7603
H 0.5777 -0.2588 3.9095
H 2.0479 -0.6001 2.9340
H 0.5836 2.6740 1.7768
H 2.1026 1.8455 2.2770
H 0.6674 2.0213 3.3561
H 7.7586 -1.5682 1.9577
H 8.2442 -1.1675 4.3285
H 5.9374 2.4498 4.2311
H 5.4401 2.0810 1.8567
H 4.1656 -2.3688 -0.5741
H 4.6292 -4.6978 -1.2595
H 8.8455 -3.9315 -1.0746
H 8.4039 -1.6002 -0.3992
H 4.3014 1.8759 -1.4749
H 4.9289 3.5310 -3.2005
H 9.0776 2.5783 -2.6424
H 8.4734 0.9184 -0.9196
