97
 
C 1.0240 -0.6530 -0.0550
N 0.8643 0.4264 0.7525
C 1.7994 1.1540 1.6462
C 2.4972 2.3166 0.8333
C 1.2564 1.8139 2.9018
C -0.4527 0.9922 0.6658
C -1.0557 0.3375 -0.5268
N -0.3429 -0.9179 -0.6490
C -1.0890 -2.0946 -1.2769
C -1.6100 -3.2708 -0.3323
C -2.4959 -1.7084 -1.8615
Pt 2.7802 -1.8697 -0.2955
C 4.5364 -3.0865 -0.5360
N 4.5453 -4.4301 -0.6732
C 3.4438 -5.4714 -0.4014
C 3.1994 -6.8258 -1.0012
C 3.9734 -7.5376 -2.0831
C 4.0000 -6.7496 -3.3902
C 5.3019 -7.8759 -1.5018
C 2.1206 -7.6742 -0.5682
C 1.2521 -7.3215 0.4190
C 1.4112 -6.1062 0.9750
C 2.4540 -5.2072 0.5769
C 2.2883 -3.8869 1.1502
C 1.0666 -3.4207 0.3787
C 2.3135 -3.9012 2.6518
C 5.9650 -4.7414 -0.9800
C 6.5588 -3.5147 -1.5508
N 5.8747 -2.4972 -0.8796
C 6.5044 -1.1935 -0.6206
C 5.7094 -0.0723 -0.6083
C 4.3316 -0.1323 -0.9372
C 3.6848 -0.9579 -2.1629
C 3.8899 -0.2332 0.5244
C 6.1173 1.1758 -0.0702
C 7.3573 1.3575 0.3995
C 8.2586 0.3518 0.2188
C 7.9125 -0.9292 -0.3232
C 9.0891 -1.8862 -0.5472
C 9.5631 -1.7316 -2.0160
C 10.2941 -1.6230 0.3493
H 2.3778 0.3786 2.1824
H 1.8044 3.1469 0.6139
H 2.8268 2.0790 -0.1938
H 3.3982 2.6745 1.3760
H 0.6268 2.6844 2.6414
H 2.1473 2.1878 3.4708
H 0.7234 1.0845 3.5409
H -0.4374 2.0945 0.5041
H -0.9959 0.7496 1.6047
H -0.8028 0.9427 -1.4278
H -2.1550 0.3015 -0.3978
H -0.4941 -2.4478 -2.1461
H -2.2898 -2.8505 0.4297
H -1.2201 -4.0088 0.3823
H -1.9904 -4.0641 -1.0225
H -3.2345 -1.5005 -1.0412
H -2.9311 -2.5755 -2.4137
H -2.4987 -0.8479 -2.5490
H 3.5548 -8.5439 -2.3399
H 4.3093 -5.7009 -3.2256
H 2.9880 -6.7553 -3.8601
H 4.7091 -7.2360 -4.0905
H 5.7020 -6.9937 -1.2171
H 6.0038 -8.3400 -2.2110
H 5.2161 -8.3697 -0.5152
H 1.9220 -8.6554 -0.9884
H 0.4315 -7.9640 0.7403
H 0.6499 -5.8234 1.6980
H 3.0446 -3.1762 1.0666
H 0.5897 -4.2240 -0.2573
H 1.2591 -3.0120 -0.6242
H 0.4228 -2.7859 1.0083
H 1.3714 -4.2847 3.0389
H 2.5032 -2.8669 3.0283
H 3.1638 -4.5583 2.9656
H 6.2829 -5.3315 -1.8525
H 6.4945 -5.0074 -0.0269
H 6.2748 -3.3874 -2.6194
H 7.6353 -3.5345 -1.6356
H 4.1362 0.8726 -1.3967
H 3.5579 -2.0309 -2.2515
H 4.2561 -0.7204 -3.0873
H 2.6139 -0.7360 -2.2480
H 3.6650 -1.1305 1.1958
H 3.0416 0.1002 0.1231
H 4.2437 0.5216 1.2481
H 5.4075 1.9929 0.0602
H 7.6191 2.2974 0.8656
H 9.2308 0.6460 0.5338
H 8.8522 -2.9133 -0.2302
H 9.8161 -0.6653 -2.2274
H 8.8020 -2.0351 -2.7639
H 10.4784 -2.3334 -2.1941
H 10.7451 -0.6329 0.1531
H 11.1036 -2.3463 0.1359
H 9.9558 -1.7486 1.3997
