25
 
C -0.3280 -1.0820 0.0030
N 0.9353 -0.6581 0.1935
H 1.7775 -1.2468 0.3756
C 0.8763 0.6838 0.1027
Cl 2.2519 1.7570 0.2747
C -0.4298 1.0508 -0.1451
Cl -1.0482 2.6780 -0.3566
N -1.1807 -0.0620 -0.2043
Pt -0.9444 -3.1417 0.0167
N -1.5465 -5.1535 0.0300
C -0.6531 -6.1329 0.2965
O 0.6121 -5.7999 0.6392
C 1.0610 -4.4876 0.6901
C -1.0650 -7.4756 0.2238
C -2.3849 -7.7690 -0.1504
C -3.2784 -6.7313 -0.4188
C -2.8373 -5.4148 -0.3041
H -2.2075 -0.1285 -0.3801
H 2.1064 -4.4964 1.0561
H 0.4556 -3.8776 1.3773
H 1.0199 -4.0159 -0.3049
H -0.3795 -8.2847 0.4372
H -2.7188 -8.7958 -0.2383
H -4.2963 -6.9410 -0.7254
H -3.5050 -4.5935 -0.5316
