37
 
C -0.3280 -1.0820 0.0030
N -1.1678 -0.0302 0.0145
H -2.2109 -0.0560 0.0324
C -0.3742 1.0572 0.0069
Cl -0.9505 2.7128 0.0248
C 0.9407 0.6417 -0.0136
Cl 2.3696 1.6577 -0.0343
N 0.9626 -0.7020 -0.0143
Pt -0.9444 -3.1417 0.0167
P -1.6497 -5.4984 0.0323
C -2.8430 -6.0853 1.2848
C -2.9389 -5.6038 -1.2267
C -3.1710 -4.5293 -2.0850
C -4.1463 -4.6301 -3.0840
C -4.8943 -5.8042 -3.2295
C -4.6325 -6.9027 -2.4127
C -3.6456 -6.8143 -1.4330
C -0.1588 -6.4738 0.0653
C 1.0892 -5.8439 0.0908
C 2.2532 -6.6303 -0.0022
C 2.1594 -8.0265 -0.1237
C 0.9078 -8.6455 -0.1333
C -0.2489 -7.8715 -0.0358
H 1.7999 -1.3252 -0.0277
H -3.7479 -5.4379 1.2807
H -2.3516 -5.9286 2.2696
H -3.1043 -7.1536 1.2164
H -2.5809 -3.6276 -1.9938
H -4.3226 -3.7960 -3.7465
H -5.6646 -5.8703 -3.9857
H -5.1897 -7.8246 -2.5388
H -3.4492 -7.6978 -0.8394
H 1.1317 -4.7473 0.1531
H 3.2299 -6.1662 -0.0019
H 3.0526 -8.6327 -0.2201
H 0.8309 -9.7224 -0.2350
H -1.2127 -8.3634 -0.0690
