58
 
P 1.0620 0.0761 0.0194
C 0.2912 -1.6704 0.5210
C -1.2469 -1.7909 0.5434
C 0.7896 -2.8468 -0.3703
C 0.7719 -2.1134 1.9247
C 0.5955 1.3718 1.4173
C 1.2082 1.0853 2.8049
C 1.1088 2.7964 1.0901
C -0.9391 1.5565 1.6167
C 0.5350 0.4462 -1.8078
C -1.0057 0.4875 -1.9600
C 1.0212 1.8383 -2.2689
C 1.0765 -0.5319 -2.8671
Pt 3.5220 0.0761 0.0194
C 5.6720 0.0761 0.0194
N 6.3773 0.7194 -0.8332
C 5.8452 1.4593 -1.9525
C 7.7907 0.5508 -0.5761
C 7.8249 -0.0996 0.8148
N 6.4800 -0.5868 0.9619
C 6.0459 -1.5531 1.9406
H -1.7099 -1.7923 -0.4401
H -1.7394 -1.0649 1.1707
H -1.5520 -2.7691 0.9703
H 0.3572 -2.8678 -1.3696
H 0.4159 -3.8199 0.0299
H 1.8981 -2.9254 -0.4073
H 0.2940 -1.5467 2.7115
H 1.8822 -2.1500 2.0093
H 0.3999 -3.1319 2.1800
H 2.3139 1.0820 2.7588
H 0.8632 0.2028 3.3184
H 0.8797 1.8695 3.5255
H 2.2098 2.8209 0.9729
H 0.8398 3.4985 1.9161
H 0.6092 3.2648 0.2363
H -1.4420 0.6826 2.0225
H -1.4566 1.9317 0.7146
H -1.1570 2.3134 2.3995
H -1.4839 1.1587 -1.2313
H -1.4566 -0.5020 -1.9203
H -1.3119 0.8485 -2.9640
H 0.6107 2.6464 -1.6648
H 0.6263 2.0685 -3.2869
H 2.1249 1.9076 -2.3174
H 0.6710 -1.5339 -2.7854
H 2.1835 -0.5653 -2.8668
H 0.7305 -0.2211 -3.8801
H 4.7344 1.4344 -1.9614
H 6.2214 1.0152 -2.8991
H 6.1847 2.5146 -1.8926
H 8.3654 1.5013 -0.5832
H 8.1862 -0.1475 -1.3473
H 7.9629 0.6829 1.5965
H 8.6152 -0.8741 0.8972
H 6.9105 -1.8855 2.5570
H 5.6446 -2.4450 1.4123
H 5.2666 -1.1242 2.5995
