39
 
N -0.6736 -1.2376 -0.0609
C 0.6683 -1.0850 -0.2773
Cl 1.6119 -2.4748 -0.7736
C 1.2955 0.1443 -0.0129
C 0.5276 1.2180 0.4468
C -0.8437 1.0544 0.6406
C -1.4241 -0.1942 0.3958
Pt -1.5681 -3.1012 -0.2763
P -2.6306 -5.3046 -0.5303
C -3.8661 -5.7963 0.7188
C -3.7880 -5.2180 -1.9260
C -3.8663 -4.0211 -2.6505
C -4.8737 -3.8180 -3.5956
C -5.7914 -4.8328 -3.8560
C -5.6967 -6.0519 -3.1726
C -4.6988 -6.2523 -2.2060
C -1.3350 -6.5197 -0.6926
C 0.0109 -6.1403 -0.6536
C 1.0062 -7.1005 -0.9110
C 0.6566 -8.4311 -1.1828
C -0.6847 -8.8123 -1.1858
C -1.6760 -7.8602 -0.9477
H 2.3650 0.2628 -0.1352
H 0.9925 2.1719 0.6650
H -1.4510 1.8812 0.9885
H -2.4788 -0.3433 0.5686
H -4.6171 -4.9924 0.8597
H -3.2741 -5.8041 1.6710
H -4.3083 -6.7965 0.5947
H -3.2006 -3.1955 -2.4448
H -4.9622 -2.8613 -4.1019
H -6.5848 -4.6652 -4.5744
H -6.4209 -6.8278 -3.3715
H -4.6741 -7.1714 -1.6389
H 0.2754 -5.1017 -0.4583
H 2.0500 -6.8183 -0.9174
H 1.4205 -9.1694 -1.3950
H -0.9615 -9.8409 -1.3879
H -2.7087 -8.1763 -0.9789
