23
 
N -1.3984 -0.1023 -0.0704
C -0.5390 -0.1963 -1.1535
C 0.8282 -0.4299 -0.9761
C 1.3581 -0.2792 0.2322
C 0.5499 0.1164 1.2886
C -0.8472 0.0514 1.1651
Pt -3.4774 -0.1926 -0.2748
N -5.5556 -0.2850 -0.5080
C -6.1107 -0.2370 -1.7401
Cl -5.0819 -0.1040 -3.1792
C -7.5164 -0.2948 -1.8510
C -8.3167 -0.1002 -0.7300
C -7.7689 -0.1414 0.4791
C -6.4008 -0.3859 0.5955
H -0.9125 -0.1162 -2.1299
H 1.4444 -0.7106 -1.7682
H 2.3772 -0.4517 0.3647
H 0.9899 0.4421 2.1794
H -1.4614 0.1362 2.0116
H -7.9649 -0.4652 -2.7804
H -9.3417 0.0683 -0.8163
H -8.3729 0.0028 1.3152
H -6.0145 -0.6332 1.5403
