27
 
N -1.4213 0.3136 -0.0322
C -0.7640 1.4265 0.3120
C 0.6432 1.4344 0.2548
C 1.3519 2.7012 0.4767
C 1.3671 0.2721 -0.0731
C 0.6766 -0.8938 -0.3481
C -0.7237 -0.8430 -0.3416
Pt -3.4093 -0.0080 -0.1879
N -5.2656 -0.5876 -0.3735
C -4.7128 -1.8747 -0.2938
N -6.4695 -1.2457 -0.5546
C -7.5717 -0.7034 -0.7130
C -7.3721 0.5889 -0.6863
C -5.9758 0.7124 -0.4751
H -1.3334 2.2880 0.6057
H 0.6133 3.4940 0.7097
H 1.8449 2.9502 -0.4857
H 2.0863 2.5908 1.2953
H 2.4544 0.2694 -0.1277
H 1.2239 -1.8092 -0.5947
H -1.2525 -1.7512 -0.6150
H -3.8469 -2.3969 -0.7249
H -4.2287 -1.7577 0.7078
H -3.9871 -1.6253 -1.1219
H -8.4420 -1.3370 -0.8564
H -8.2081 1.2702 -0.8241
H -5.5624 1.7172 -0.4386
