34
 
N -1.4095 -0.2608 -0.0586
C -0.5631 0.0900 -1.0740
C 0.8102 -0.1860 -1.0041
C 1.3471 -0.6277 0.1785
C 0.5206 -0.7699 1.2818
C -0.8705 -0.6863 1.1218
Pt -3.4604 -0.2623 -0.2829
P -5.8509 -0.2853 -0.4847
C -6.6249 1.3461 -0.7497
C -6.2852 -1.1927 -2.0514
C -6.6228 -1.0840 0.9455
C -6.2822 -0.3244 2.1941
C -8.1301 -1.1166 0.7370
C -6.1206 -2.5285 1.0761
H -0.9225 0.5681 -1.9574
H 1.4773 -0.0368 -1.8388
H 2.4045 -0.8287 0.2306
H 0.9612 -0.9883 2.2322
H -1.5101 -0.9758 1.9353
H -6.1521 1.8642 -1.6009
H -6.3588 1.9560 0.1577
H -7.7073 1.3308 -0.8470
H -5.8665 -0.7627 -2.9493
H -7.3959 -1.3005 -2.1705
H -5.9226 -2.2591 -1.9597
H -6.6396 0.7122 2.1036
H -5.1890 -0.3213 2.3508
H -6.7607 -0.7979 3.0706
H -8.5011 -0.0858 0.6347
H -8.6184 -1.5941 1.6038
H -8.3840 -1.6898 -0.1714
H -5.0272 -2.5441 1.2294
H -6.3613 -3.1203 0.1752
H -6.5980 -3.0214 1.9474
