33
 
N -1.3987 -0.1371 -0.0295
C -0.7476 0.9816 0.4614
C 0.6418 1.1334 0.3354
Cl 1.4435 2.6834 0.5987
C 1.3703 0.0546 0.0108
C 0.7446 -1.1661 -0.1834
C -0.6442 -1.2152 -0.3615
Pt -3.4848 -0.2002 -0.2713
N -5.5605 -0.2915 -0.5169
C -6.3500 0.7374 -0.6614
C -5.8508 2.1725 -0.7336
C -4.4830 2.4949 -0.6429
C -4.0659 3.8033 -0.4318
C -4.9390 4.8031 -0.5907
C -6.2383 4.5154 -0.9762
C -6.7265 3.2098 -0.9013
N -7.7413 0.3146 -0.8129
C -7.7279 -1.1468 -1.0889
C -6.3543 -1.5498 -0.5195
H -1.2938 1.7658 0.8909
H 2.4074 0.1577 -0.0750
H 1.3246 -2.0402 -0.2251
H -1.1043 -2.1002 -0.7134
H -3.7647 1.7346 -0.7177
H -3.0826 4.0305 -0.1613
H -4.6184 5.7845 -0.4329
H -6.8613 5.2930 -1.3023
H -7.7531 3.0060 -0.9759
H -8.5811 0.9162 -0.7347
H -7.7571 -1.3676 -2.1683
H -8.5677 -1.7290 -0.7055
H -5.8877 -2.3295 -1.0928
H -6.4660 -1.9689 0.4987
