44
 
N -1.3828 -0.0962 -0.0459
C -0.7104 -0.9849 0.8209
C 0.6136 -0.7138 1.1978
F 1.1731 -1.3783 2.2051
C 1.2980 0.1941 0.5573
C 0.7154 0.8864 -0.5100
C -0.6852 0.8373 -0.6955
Pt -3.4808 -0.2107 -0.2635
P -5.9134 -0.3022 -0.5604
N -6.3976 -1.8702 -1.2524
C -5.7611 -2.0355 -2.5672
C -5.9774 -2.9594 -0.3642
O -6.3650 0.8028 -1.4759
C -6.4360 2.1598 -0.9312
C -5.5636 3.1573 -1.3701
C -5.6385 4.4230 -0.8276
C -6.5746 4.7124 0.1534
C -7.4531 3.7445 0.5957
C -7.4054 2.4633 0.0558
C -8.3628 1.4245 0.4836
C -9.7266 1.7073 0.5419
C -10.6172 0.7358 0.9491
C -10.1641 -0.5237 1.3040
C -8.8178 -0.8188 1.2522
C -7.9065 0.1417 0.8376
O -6.5531 -0.1674 0.7674
H -1.1850 -1.8358 1.1703
H 2.2704 0.3987 0.8399
H 1.3073 1.4327 -1.1582
H -1.1561 1.5055 -1.3294
H -6.0676 -1.2412 -3.2172
H -6.0537 -2.9750 -2.9910
H -4.6962 -2.0124 -2.4543
H -6.4413 -2.8391 0.5937
H -4.9164 -2.9389 -0.2503
H -6.2700 -3.8995 -0.7859
H -4.8627 2.9465 -2.1001
H -4.9924 5.1607 -1.1544
H -6.6152 5.6629 0.5573
H -8.1457 3.9715 1.3288
H -10.0712 2.6457 0.2787
H -11.6277 0.9492 0.9900
H -10.8376 -1.2450 1.6115
H -8.4853 -1.7628 1.5153
