23
 
N -1.3900 -0.1120 -0.0540
C -0.7236 0.8825 -0.6984
C 0.6660 0.9720 -0.6089
C 1.3668 -0.0270 0.0671
C 0.6675 -1.0650 0.6900
C -0.7331 -1.0639 0.6605
Pt -3.4756 -0.2017 -0.2821
O -5.5116 -0.2893 -0.5047
C -5.7076 -0.1135 -1.8664
C -5.1086 1.1999 -2.3034
C -5.0402 -1.2938 -2.5863
H -1.2854 1.6423 -1.2265
H 1.1924 1.7969 -1.0726
H 2.4483 0.0015 0.1010
H 1.2073 -1.8654 1.1791
H -1.2873 -1.8779 1.1086
H -6.7986 -0.1487 -2.0844
H -4.0307 1.2171 -2.0041
H -5.6623 2.0259 -1.8114
H -5.2349 1.3007 -3.4046
H -3.9453 -1.2980 -2.3934
H -5.2100 -1.2394 -3.6818
H -5.4559 -2.2586 -2.2185
