50
 
N 1.1577 -0.7204 0.0978
C 1.1059 0.6421 0.2046
C 2.3365 1.3560 0.6561
C -0.0621 1.3413 -0.1672
C -1.1483 0.6242 -0.6814
C -1.0947 -0.7667 -0.7425
C 0.0658 -1.4286 -0.3122
C 0.1048 -2.9179 -0.2146
Pt 2.9475 -1.7067 0.4307
P 5.0603 -2.8312 0.8296
N 6.4980 -1.8351 0.9454
C 6.5809 -1.0594 -0.3096
C 6.6310 -0.9768 2.1375
O 5.2052 -3.8727 -0.4826
C 4.6671 -5.0966 -0.3809
C 3.7231 -5.4491 -1.3454
C 3.0936 -6.6885 -1.3015
C 3.4282 -7.6053 -0.3070
C 4.3936 -7.2827 0.6504
C 5.0178 -6.0174 0.6514
C 6.0294 -5.7274 1.7221
C 7.0420 -6.6845 1.9507
C 8.0453 -6.4555 2.8946
C 8.0232 -5.3000 3.6709
C 7.0000 -4.3687 3.5086
C 6.0221 -4.5424 2.5229
O 5.1202 -3.5465 2.3450
H 3.1511 0.5748 0.8477
H 2.1312 1.9537 1.5734
H 2.6271 2.0633 -0.1552
H -0.1162 2.4208 -0.1022
H -2.0391 1.1389 -1.0187
H -1.9497 -1.3282 -1.1034
H -0.8736 -3.3685 -0.4943
H 0.2555 -3.1645 0.8616
H 0.9340 -3.3639 -0.7967
H 6.5917 -1.7616 -1.1810
H 7.5208 -0.4718 -0.3603
H 5.7215 -0.3652 -0.4514
H 6.5489 -1.5967 3.0484
H 5.9345 -0.1371 2.1394
H 7.6366 -0.5041 2.1024
H 3.4636 -4.7390 -2.1207
H 2.3443 -6.9343 -2.0412
H 2.9345 -8.5675 -0.2758
H 4.6283 -8.0149 1.4142
H 7.0881 -7.5935 1.3617
H 8.8479 -7.1714 3.0195
H 8.8100 -5.1102 4.3886
H 7.0022 -3.4692 4.1076
