20
 
N 1.2497 -0.6717 0.0905
C 0.0663 -1.3877 0.1404
C 0.1608 -2.8649 0.2636
C -1.1737 -0.7296 0.0497
C -1.2056 0.6645 -0.0497
C -0.0053 1.3722 -0.1363
C 1.2180 0.6657 -0.1080
C 2.5244 1.3761 -0.2262
Pt 2.9539 -1.7051 0.4273
C 4.8079 -2.7372 0.7736
O 5.8583 -3.3220 0.9698
H 1.2428 -3.1609 0.3599
H -0.2876 -3.3386 -0.6442
H -0.4139 -3.2121 1.1427
H -2.1108 -1.2808 0.0819
H -2.1593 1.1884 -0.0653
H -0.0406 2.4524 -0.2092
H 2.3730 2.4728 -0.3288
H 3.0141 0.9874 -1.1395
H 3.1535 1.1401 0.6545
