67
 
P 1.0395 0.0090 -0.0914
O -0.0002 -0.3086 1.2358
C 0.5204 -1.5240 1.7979
C -0.1863 -1.9498 3.0713
O 0.4775 1.5386 -0.6075
C 0.5428 2.4957 0.4066
C 0.0617 3.8189 -0.1766
O 0.5661 -1.3849 -0.9810
C -0.8561 -1.3277 -1.1264
C -1.3956 -2.5716 -1.8010
Pt 3.4995 0.0090 -0.0914
C 5.6495 0.0090 -0.0914
N 6.4837 1.0930 -0.1261
C 5.8814 2.4132 -0.2566
C 6.4438 3.7916 -0.7540
C 5.1511 4.6363 -1.0700
C 4.2428 4.7736 0.1712
C 3.9420 3.4134 0.7779
C 5.1927 2.6691 1.0831
C 7.7490 0.6157 -0.0515
C 7.6822 -0.7859 0.0032
N 6.3755 -1.1402 -0.0240
C 5.6296 -2.3716 -0.2745
C 5.5067 -2.2948 -1.8300
C 6.5184 -3.2518 -2.4761
C 6.0855 -4.6726 -2.1604
C 6.1803 -4.9117 -0.6494
C 5.3972 -3.8674 0.1423
H 1.6147 -1.4640 2.0281
H 0.3499 -2.3786 1.1080
H 0.0622 -1.2697 3.9090
H 0.1603 -2.9766 3.3393
H -1.2809 -1.9890 2.9032
H 1.5601 2.6214 0.7367
H -0.0700 2.2302 1.2879
H 0.6514 4.0879 -1.0826
H 0.1707 4.6317 0.5699
H -1.0061 3.7250 -0.4665
H -1.1660 -0.4335 -1.7090
H -1.3980 -1.3305 -0.1550
H -1.0021 -2.6436 -2.8313
H -2.5075 -2.5066 -1.8351
H -1.1203 -3.4747 -1.2147
H 5.2264 2.1784 -1.1241
H 7.0363 3.7308 -1.6926
H 7.0577 4.3328 0.0062
H 4.5615 4.1058 -1.8579
H 5.3637 5.6456 -1.4739
H 3.2694 5.2408 -0.0959
H 4.7472 5.3951 0.9367
H 3.4253 2.7807 0.0242
H 3.3549 3.5107 1.7127
H 4.8889 1.7263 1.5827
H 5.8661 3.2064 1.7928
H 8.6474 1.2220 -0.0630
H 8.5183 -1.4736 -0.0024
H 4.8840 -2.1080 0.5100
H 5.7759 -1.2924 -2.2484
H 4.4736 -2.4882 -2.1620
H 7.5529 -3.0712 -2.0938
H 6.5314 -3.1027 -3.5754
H 6.7321 -5.4004 -2.6909
H 5.0401 -4.8043 -2.5277
H 7.2331 -4.8660 -0.3219
H 5.7677 -5.9243 -0.4302
H 5.4361 -4.1018 1.2282
H 4.3219 -4.0455 -0.1496
