54
 
P 0.9528 0.0725 -0.0502
O -0.0824 1.2710 0.6097
C 0.4351 1.4850 1.9328
C -0.2714 2.5996 2.6818
O 0.4224 0.0294 -1.6693
C 0.6778 1.2409 -2.3098
C 2.1789 1.5070 -2.4048
O 0.4757 -1.1604 1.0498
C -0.9464 -1.2781 0.9613
C -1.4851 -2.2603 1.9807
Pt 3.4128 0.0725 -0.0502
P 5.8728 0.0725 -0.0502
N 6.8777 -1.4277 -0.2339
C 6.5550 -2.4740 0.7804
C 6.5533 -2.0948 -1.5296
N 6.3456 0.8429 -1.6083
C 5.8994 2.2417 -1.7119
C 7.8137 0.8286 -1.8210
N 6.3237 0.5599 1.6232
C 7.7815 0.7381 1.7850
C 5.6805 1.8298 2.0274
H 1.5293 1.7213 1.9404
H 0.2617 0.5912 2.5705
H -0.0194 3.5883 2.2514
H 0.0714 2.5827 3.7441
H -1.3663 2.4297 2.6704
H 0.1063 2.0704 -1.8407
H 0.2761 1.1328 -3.3422
H 2.6262 1.6617 -1.4019
H 2.3434 2.4213 -3.0021
H 2.6694 0.6336 -2.8838
H -1.2592 -1.5984 -0.0554
H -1.4835 -0.3407 1.2263
H -1.0937 -3.2729 1.7730
H -2.5971 -2.2739 1.9117
H -1.2067 -1.9387 3.0076
H 6.8248 -2.1853 1.8115
H 7.1391 -3.4064 0.5681
H 5.4841 -2.8014 0.7500
H 6.5931 -1.4325 -2.4093
H 5.5302 -2.5392 -1.5485
H 7.2896 -2.9061 -1.7287
H 4.8071 2.3342 -1.5774
H 6.1321 2.6281 -2.7335
H 6.4344 2.9020 -0.9928
H 8.2433 -0.1873 -1.8720
H 8.3548 1.3689 -1.0218
H 8.0623 1.2809 -2.8062
H 8.3447 -0.1567 1.4612
H 8.0199 0.8918 2.8628
H 8.1631 1.6371 1.2479
H 4.5770 1.7428 2.0342
H 5.9894 2.6897 1.3881
H 5.9816 2.0961 3.0701
