35
 
P 1.0201 -0.0668 0.0716
O -0.0135 -0.8990 1.1591
C 0.5062 -2.2385 1.1739
C -0.1913 -3.1436 2.1728
O 0.4937 1.5413 0.2746
C 0.7535 1.9939 1.5676
C 2.2557 2.0539 1.8416
O 0.5410 -0.9691 -1.3120
C -0.8815 -0.8661 -1.4128
C -1.4203 -1.7270 -2.5367
Pt 3.4801 -0.0668 0.0716
C 5.6301 -0.0668 0.0716
N 6.3980 0.4176 1.0655
H 6.0754 0.8548 1.9565
C 7.6671 0.2147 0.6641
Cl 9.0896 0.6588 1.5877
C 7.6450 -0.3927 -0.5737
Cl 9.0275 -0.8751 -1.5385
N 6.3637 -0.5665 -0.9398
H 1.6018 -2.2789 1.4002
H 0.3285 -2.7384 0.1969
H 0.0673 -2.8610 3.2120
H 0.1524 -4.1916 2.0000
H -1.2873 -3.1098 2.0142
H 0.1854 1.4063 2.3202
H 0.3498 3.0302 1.6147
H 2.7082 1.0421 1.8541
H 2.4195 2.5148 2.8318
H 2.7420 2.6569 1.0459
H -1.1972 0.1868 -1.5750
H -1.4160 -1.2712 -0.5255
H -1.0337 -1.3672 -3.5077
H -2.5326 -1.6618 -2.5363
H -1.1367 -2.7895 -2.3747
H 6.0067 -0.9986 -1.8204
