33
 
N -1.4017 -0.0835 -0.0592
C -0.7491 1.1090 0.0973
C 0.6286 1.2147 -0.0427
C 1.4010 0.0940 -0.0517
N 2.8218 0.1865 -0.2060
C 3.5640 1.3487 0.2531
C 3.5458 -0.8940 -0.8558
C 0.7321 -1.1229 0.1008
C -0.6488 -1.2185 -0.0548
Pt -3.4784 -0.1939 -0.2807
N -5.5450 -0.2625 -0.5123
C -5.8826 -1.0209 -1.7288
C -6.1186 -1.0339 0.6193
C -6.1179 1.0472 -0.5557
H -1.2868 2.0051 0.2942
H 1.0915 2.1422 -0.1409
H 2.9183 2.0765 0.7158
H 4.0723 1.8418 -0.5659
H 4.2968 1.0590 1.0027
H 2.8729 -1.6847 -1.1635
H 4.2796 -1.3221 -0.1834
H 4.0551 -0.5388 -1.7516
H 1.2938 -1.9860 0.3117
H -1.1176 -2.1646 -0.1477
H -5.4724 -2.0120 -1.7135
H -5.4706 -0.4809 -2.5929
H -6.9646 -1.0758 -1.8598
H -5.7121 -2.0262 0.6784
H -7.2050 -1.0889 0.5350
H -5.8878 -0.5041 1.5555
H -5.7071 1.5932 -1.3982
H -5.8846 1.5824 0.3583
H -7.2021 0.9990 -0.6633
