24
 
N -0.6790 1.1930 0.0010
C 0.5611 1.1421 -0.5519
F 1.0898 2.2585 -1.1098
C 1.2615 -0.0660 -0.5927
C 0.6878 -1.2047 -0.0221
F 1.3604 -2.3819 -0.0332
C -0.5807 -1.1261 0.5600
C -1.2656 0.0934 0.5429
F -2.4903 0.1984 1.1135
Pt -1.6914 3.0329 0.0055
N -2.7038 4.8727 0.0100
C -2.8116 4.7799 -1.4578
N -3.9547 5.0232 0.5491
C -4.2180 6.2779 0.6886
C -3.1063 7.0537 0.3593
C -2.1084 6.1552 0.0197
H 2.2365 -0.1181 -1.0602
H -1.0264 -1.9994 1.0185
H -3.3102 3.8198 -1.7118
H -1.8004 4.7118 -1.9354
H -3.4125 5.5859 -1.9497
H -5.1738 6.6574 1.0232
H -3.0231 8.1333 0.3585
H -1.1030 6.4052 -0.3047
