55
 
P 1.0080 -0.0150 -0.0985
C 0.3571 0.9615 1.3396
C 0.9048 0.3429 2.6399
C 0.8400 1.4746 3.6527
C 1.2837 2.7029 2.8742
C 1.0663 2.3352 1.3967
C 0.4745 0.7563 -1.7033
C 0.9293 2.1772 -1.9383
C 0.6582 2.3630 -3.4276
C 1.1811 1.0751 -4.0396
C 0.9557 -0.0018 -2.9652
C 0.4488 -1.7410 0.2901
C -1.0790 -1.9139 0.2279
C -1.2074 -3.4313 0.2737
C -0.1300 -3.9141 -0.6946
C 0.9163 -2.7818 -0.7349
Pt 3.4680 -0.0150 -0.0985
N 5.5680 -0.0150 -0.0985
C 6.2114 -0.6214 0.9350
C 7.6037 -0.5587 1.0304
C 8.3228 0.1321 0.0535
C 7.6453 0.7403 -1.0063
C 6.2498 0.6569 -1.0647
H -0.7483 1.0741 1.4018
H 1.9809 0.0864 2.4972
H 0.3606 -0.5639 2.9789
H 1.4334 1.3042 4.5805
H -0.2249 1.6184 3.9299
H 2.3730 2.8972 3.0231
H 0.7333 3.6030 3.2234
H 2.1014 2.1632 1.0174
H 0.6355 3.1548 0.7949
H -0.6425 0.7645 -1.7504
H 2.0173 2.2390 -1.7346
H 0.3616 2.9120 -1.3355
H 1.1328 3.2734 -3.8545
H -0.4399 2.4126 -3.5985
H 2.2814 1.1971 -4.1454
H 0.7729 0.8488 -5.0513
H 1.9409 -0.4880 -2.8036
H 0.2297 -0.7870 -3.2828
H 0.8017 -2.0698 1.2885
H -1.4851 -1.5500 -0.7450
H -1.6283 -1.4162 1.0559
H -2.2193 -3.8461 0.0630
H -0.9148 -3.7529 1.2972
H -0.5714 -4.0110 -1.7144
H 0.2715 -4.9048 -0.3929
H 0.8441 -2.3597 -1.7555
H 1.9639 -3.1066 -0.5765
H 5.6368 -1.1344 1.6949
H 8.1177 -1.0276 1.8598
H 9.4010 0.2018 0.1226
H 8.1952 1.2829 -1.7642
H 5.7082 1.1433 -1.8649
