45
 
P 0.9313 0.0550 0.0474
C 0.0232 1.4199 -0.7557
C 0.4730 -1.3268 -1.0370
C 0.3627 0.1077 1.7962
C -1.1728 -0.0626 1.8206
C 0.9952 -1.0699 2.5571
C 0.7520 1.4287 2.4678
Pt 3.3913 0.0550 0.0474
P 5.8513 0.0550 0.0474
C 6.7622 1.0848 1.2449
C 6.3188 -1.6059 0.6106
C 6.3730 0.6761 -1.6008
C 5.8521 2.0952 -1.8354
C 7.9162 0.6533 -1.6936
C 5.8017 -0.2695 -2.6708
H -1.0733 1.3315 -0.7485
H 0.3851 1.4920 -1.8045
H 0.3432 2.3729 -0.2788
H -0.6385 -1.3879 -1.0645
H 0.8487 -2.2714 -0.5921
H 0.8622 -1.1961 -2.0631
H -1.4701 -1.0190 1.3349
H -1.6862 0.7630 1.2899
H -1.5597 -0.0715 2.8604
H 0.7143 -2.0402 2.0906
H 0.6380 -1.0880 3.6107
H 2.1039 -0.9872 2.5575
H 0.2826 2.2895 1.9515
H 1.8546 1.5569 2.4602
H 0.3921 1.4426 3.5192
H 6.4027 0.8083 2.2610
H 6.4443 2.1414 1.1005
H 7.8583 0.9969 1.2034
H 5.9335 -1.8248 1.6230
H 7.4299 -1.6721 0.6070
H 5.9370 -2.3496 -0.1199
H 6.2626 2.7976 -1.0828
H 4.7432 2.1071 -1.7775
H 6.1634 2.4534 -2.8404
H 8.3810 1.3259 -0.9449
H 8.2613 0.9927 -2.6926
H 8.3103 -0.3737 -1.5243
H 4.6903 -0.2936 -2.6156
H 6.1832 -1.3053 -2.5267
H 6.1078 0.0604 -3.6880
