29
 
C 0.9010 -0.6430 -0.0020
N 0.1432 -0.4118 -1.0905
C -0.8206 0.4124 -0.6431
C -0.6333 0.6180 0.7052
O 0.4498 -0.0267 1.0663
Pt 2.6584 -1.8814 -0.0135
N 4.3750 -3.0911 -0.0247
C 4.3731 -4.3768 -0.0777
C 3.1400 -5.2380 -0.0158
C 1.8458 -4.6833 -0.0899
C 0.7067 -5.4899 -0.0290
C 0.8305 -6.8698 0.1079
C 2.0972 -7.4452 0.1962
C 3.2436 -6.6408 0.1401
N 5.6871 -4.8882 -0.0688
C 6.5762 -3.7899 -0.3177
C 5.7115 -2.5609 0.0116
H -1.6085 0.8291 -1.2561
H -1.2546 1.2092 1.3647
H 1.6840 -3.6345 -0.2091
H -0.2755 -5.0393 -0.0946
H -0.0560 -7.4907 0.1454
H 2.1893 -8.5184 0.3074
H 4.2002 -7.1341 0.2251
H 5.9557 -5.8787 -0.1363
H 6.8013 -3.8396 -1.4106
H 7.5191 -3.8070 0.2625
H 5.8574 -1.8000 -0.7942
H 5.9089 -2.1278 1.0065
