79
 
P -0.0940 -2.5890 -0.0020
N 0.2469 -2.0357 -1.6534
C 1.6798 -1.6475 -1.6253
C 0.2070 -3.2174 -2.5659
O 0.0109 -1.1892 0.8578
C -0.8496 -1.0773 1.8895
C -0.2973 -0.8148 3.1464
C -1.1072 -0.7165 4.2743
C -2.4881 -0.8503 4.1550
C -3.0658 -1.0830 2.9044
C -2.2680 -1.2222 1.7469
C -2.9664 -1.4881 0.4368
C -4.0769 -0.6826 0.1056
C -4.7540 -0.8524 -1.1048
C -4.3702 -1.8579 -1.9878
C -3.3088 -2.6952 -1.6685
C -2.5876 -2.5150 -0.4860
O -1.5395 -3.3340 -0.2776
Pt 1.4250 -4.0575 1.2581
P 2.9440 -5.5260 2.5182
C 3.3195 -7.1267 1.5495
C 3.9704 -6.7903 0.1862
C 4.2118 -8.2171 2.1940
C 1.9503 -7.7411 1.1969
C 4.5157 -4.5329 2.8317
C 4.1248 -3.2909 3.6433
C 5.5187 -5.3283 3.7044
C 5.2356 -4.0486 1.5620
C 2.0309 -6.0702 3.9710
C 0.7694 -5.5632 4.2398
C 0.1219 -5.9086 5.4358
C 0.7163 -6.7726 6.4037
N 0.0740 -7.0597 7.6807
C -1.2201 -6.5015 8.0652
C 0.6949 -7.8651 8.7324
C 1.9909 -7.2968 6.0766
C 2.6305 -6.9377 4.8953
H 1.8450 -0.7773 -0.9626
H 2.0527 -1.3829 -2.6395
H 2.3392 -2.4810 -1.2526
H -0.7957 -3.6732 -2.6266
H 0.9172 -4.0339 -2.2695
H 0.4807 -2.9264 -3.6053
H 0.7756 -0.7105 3.2477
H -0.6603 -0.5390 5.2435
H -3.1129 -0.7766 5.0362
H -4.1432 -1.1874 2.8501
H -4.4012 0.1104 0.7689
H -5.5778 -0.2003 -1.3622
H -4.8902 -1.9907 -2.9266
H -3.0240 -3.4752 -2.3607
H 5.0343 -6.5518 0.2813
H 3.4283 -5.9728 -0.3387
H 3.9894 -7.6801 -0.4795
H 5.2587 -7.8969 2.3007
H 4.2756 -9.0923 1.5115
H 3.8351 -8.6268 3.1405
H 1.3422 -7.0087 0.6179
H 1.3815 -8.0368 2.0995
H 2.0749 -8.6412 0.5536
H 3.6566 -3.5818 4.6081
H 3.4235 -2.6513 3.0713
H 5.0336 -2.6912 3.8813
H 5.0524 -5.6731 4.6473
H 6.3889 -4.7046 3.9952
H 5.9511 -6.1880 3.1788
H 4.5352 -3.5167 0.8867
H 5.7503 -4.8501 1.0273
H 6.0728 -3.3699 1.8325
H 0.3110 -4.8637 3.5346
H -0.8323 -5.4482 5.5688
H -1.7166 -5.8758 7.3158
H -1.0916 -5.8591 8.9621
H -1.9305 -7.3204 8.3016
H 1.6814 -8.2832 8.4979
H 0.0386 -8.7230 8.9913
H 0.8371 -7.2382 9.6394
H 2.5558 -7.9636 6.7075
H 3.6202 -7.3291 4.7434
