81
 
P 1.0598 -0.0556 0.0577
O -0.0018 0.7966 1.1013
C 0.4382 0.5699 2.4683
C 1.9581 0.6993 2.7767
C -0.2648 1.5020 3.4492
O 0.4803 0.4679 -1.4634
C 0.9327 1.7341 -1.8724
C 2.4491 1.9231 -1.7341
C 0.5571 1.8479 -3.3606
O 0.6722 -1.5999 0.7098
C 1.1981 -2.6457 -0.0830
C 0.7416 -3.9958 0.5039
C 0.7169 -2.6195 -1.5479
Pt 3.5198 -0.0556 0.0577
P 5.9798 -0.0556 0.0577
C 6.6573 -1.7099 -0.5971
C 6.1833 -1.9531 -2.0535
C 8.1820 -1.8872 -0.5424
C 5.9965 -2.8600 0.1998
C 6.5329 1.4055 -1.0421
C 5.9912 2.7126 -0.4342
C 8.0732 1.5642 -1.0749
C 6.0473 1.3457 -2.4984
C 6.4585 0.1069 1.8102
C 5.4957 0.2399 2.7927
C 5.8218 0.6072 4.1024
C 7.1652 0.8612 4.4838
N 7.5161 1.3723 5.8039
C 6.5259 1.7003 6.8276
C 8.8867 1.6906 6.2020
C 8.1462 0.6334 3.4861
C 7.7976 0.2684 2.1846
H 0.1325 -0.4556 2.7521
H 2.3714 1.7192 2.6003
H 2.5045 -0.0481 2.1887
H 2.1703 0.4349 3.8390
H 0.0867 2.5514 3.3386
H -0.0263 1.1725 4.4894
H -1.3580 1.4434 3.3087
H 0.3851 2.5195 -1.3127
H 2.9291 1.0964 -2.2839
H 2.7649 1.9256 -0.6759
H 2.7495 2.9008 -2.1699
H 1.0940 1.0808 -3.9660
H 0.8069 2.8513 -3.7621
H -0.5325 1.6741 -3.4976
H 2.3077 -2.6014 -0.0291
H -0.3690 -4.0927 0.4867
H 1.0884 -4.1335 1.5483
H 1.1587 -4.8273 -0.1056
H -0.3936 -2.6718 -1.6008
H 1.1552 -3.4766 -2.0959
H 1.0681 -1.7259 -2.0877
H 6.7281 -1.3551 -2.7859
H 5.0856 -1.7888 -2.1521
H 6.3988 -2.9913 -2.3872
H 8.7044 -1.2317 -1.2487
H 8.4620 -2.9137 -0.8611
H 8.5710 -1.7437 0.4776
H 4.8862 -2.8017 0.1219
H 6.2853 -2.8733 1.2669
H 6.2930 -3.8456 -0.2360
H 6.4461 2.9146 0.5591
H 4.8913 2.6868 -0.3378
H 6.2599 3.5772 -1.0875
H 8.4995 1.6413 -0.0609
H 8.3759 2.4939 -1.6004
H 8.5713 0.7602 -1.6302
H 4.9723 1.1786 -2.5411
H 6.5589 0.5995 -3.1079
H 6.2806 2.2938 -3.0295
H 4.4857 0.1118 2.5261
H 4.9816 0.7231 4.7616
H 5.4790 1.5225 6.5532
H 6.5953 2.7819 7.0788
H 6.7261 1.1100 7.7457
H 9.6632 1.4993 5.4528
H 9.1632 1.1007 7.0996
H 8.9624 2.7735 6.4436
H 9.1983 0.7711 3.6409
H 8.6000 0.1800 1.4759
