60
 
P 0.9038 -0.0087 -0.0258
C 0.5218 -0.2120 -2.0283
C 1.0751 0.8747 -2.9979
C 2.6040 0.9447 -2.9601
C 3.2175 -0.3810 -3.4198
C 2.6404 -1.5535 -2.6216
C 1.1023 -1.4903 -2.7777
C 0.2646 -1.4021 1.1339
C -1.2797 -1.5512 1.0410
C -1.6759 -2.0420 -0.3458
C -0.9488 -3.3481 -0.7319
C 0.5602 -3.4203 -0.3135
C 0.8369 -2.8407 1.0442
C 0.1869 1.6953 0.4786
C 0.3326 2.1216 1.9779
C 1.7854 2.4594 2.3594
C 2.3869 3.5180 1.4159
C 2.2006 3.0936 -0.0303
C 0.7003 2.8971 -0.3031
Pt 3.3638 -0.0087 -0.0258
C 5.5138 -0.0087 -0.0258
N 6.2603 1.0599 0.3099
C 7.5252 0.6270 0.1668
C 7.4975 -0.6849 -0.2502
O 6.2427 -1.0483 -0.3604
H -0.5430 -0.1506 -2.2958
H 0.5811 1.8271 -2.9388
H 0.7741 0.6474 -4.0505
H 2.9347 1.1440 -1.9406
H 2.9522 1.7627 -3.6206
H 4.3220 -0.3542 -3.3305
H 2.9629 -0.5276 -4.4959
H 2.9632 -1.5124 -1.5354
H 3.0290 -2.4976 -3.0684
H 0.6074 -2.4453 -2.6217
H 0.8715 -1.4772 -3.8725
H 0.5013 -1.0689 2.1663
H -1.7754 -0.5826 1.2589
H -1.6517 -2.2959 1.7793
H -1.4349 -1.2430 -0.9903
H -2.7711 -2.1331 -0.4937
H -1.0781 -3.5235 -1.8263
H -1.4807 -4.1688 -0.2232
H 1.2543 -2.8037 -0.8373
H 0.9470 -4.4495 -0.4551
H 1.9298 -2.8482 1.2527
H 0.3538 -3.4971 1.8030
H -0.9088 1.6012 0.3068
H -0.0945 1.3752 2.6768
H -0.2649 3.0572 2.1297
H 2.3737 1.5231 2.3071
H 1.8283 2.8576 3.3982
H 3.4729 3.6383 1.6153
H 1.8930 4.5038 1.5702
H 2.7991 2.1386 -0.1264
H 2.5701 3.8968 -0.7105
H 0.4636 2.8117 -1.3289
H 0.1219 3.8153 -0.0371
H 8.4061 1.2265 0.3530
H 8.3491 -1.3194 -0.4561
