27
 
P 1.2175 -0.4894 0.2911
F -0.3845 -0.2093 0.6682
F 0.9038 -0.7731 -1.3326
F 1.2989 -1.8513 1.2697
Ag 3.5839 -0.2822 0.0955
P 5.9176 0.1047 -0.0702
C 6.7598 1.7044 -0.2108
C 6.4912 -0.5263 1.5445
C 6.4930 -0.8952 -1.5174
C 5.8927 -0.3455 -2.8061
C 8.0367 -0.8615 -1.5925
C 6.0637 -2.3691 -1.3428
H 6.3874 2.3379 0.6246
H 6.3912 2.1841 -1.1444
H 7.8584 1.6612 -0.1891
H 6.1279 0.0752 2.3960
H 7.6033 -0.5599 1.5474
H 6.1433 -1.5778 1.6590
H 6.2025 0.7074 -2.9578
H 4.7838 -0.4033 -2.7531
H 6.2482 -0.9425 -3.6744
H 8.4131 0.1697 -1.7346
H 8.4065 -1.4633 -2.4495
H 8.4937 -1.2770 -0.6662
H 4.9596 -2.4601 -1.2836
H 6.5039 -2.8176 -0.4245
H 6.4175 -2.9829 -2.2022
