100
 
P 0.9072 0.0188 -0.0321
C 0.1467 -1.5310 -0.6155
C -1.2319 -1.7841 -0.6799
C -1.6997 -3.0206 -1.1516
C -0.8003 -4.0178 -1.5492
Cl -1.3884 -5.5909 -2.0618
C 0.5710 -3.7650 -1.5211
C 1.0390 -2.5292 -1.0644
C 0.3796 -0.2994 1.7235
C 0.6879 -1.4496 2.4834
C 0.2476 -1.5645 3.8229
C -0.5019 -0.5479 4.4239
Cl -1.0008 -0.6720 6.1068
C -0.8519 0.5711 3.6806
C -0.4276 0.6851 2.3539
C -0.1947 1.3151 -0.8725
C -1.0292 1.0008 -1.9795
C -2.0013 1.9078 -2.4552
C -2.1557 3.1599 -1.8617
Cl -3.4337 4.2589 -2.3588
C -1.3061 3.5256 -0.8354
C -0.3534 2.6234 -0.3659
Ag 3.3672 0.0188 -0.0321
C 5.5172 0.0188 -0.0321
N 6.2392 1.1982 0.1171
C 5.9323 2.6698 0.1568
C 4.6987 3.2654 0.6755
C 3.5139 2.5250 1.3345
C 3.7584 1.8963 2.7111
C 2.3064 3.4112 1.5096
C 4.5342 4.6865 0.5696
C 5.4835 5.5325 0.1100
C 6.6640 5.0303 -0.3250
C 6.9092 3.6367 -0.3724
C 8.1670 3.2792 -1.1715
C 7.9271 3.7665 -2.6092
C 9.4976 3.8564 -0.6377
C 7.4692 0.7515 0.4453
C 7.5153 -0.6242 0.4409
N 6.2980 -1.1391 0.1385
C 5.9946 -2.6303 0.0985
C 6.5180 -3.5816 1.1000
C 7.4233 -3.2371 2.3012
C 6.8474 -3.6834 3.6508
C 8.8144 -3.8979 2.1355
C 6.2658 -4.9790 0.9665
C 5.5598 -5.5135 -0.0847
C 5.1336 -4.6922 -1.0884
C 5.3611 -3.2993 -1.0583
C 5.3261 -2.7366 -2.4799
C 4.1527 -1.8644 -2.9063
C 6.7144 -2.1753 -2.7305
H -1.9414 -1.0271 -0.3841
H -2.7631 -3.2087 -1.1994
H 1.2733 -4.5284 -1.8418
H 2.1088 -2.3613 -1.0449
H 1.2575 -2.2607 2.0600
H 0.4915 -2.4397 4.4101
H -1.4480 1.3606 4.1321
H -0.7431 1.5714 1.8460
H -0.9882 0.0414 -2.4643
H -2.6650 1.6268 -3.2617
H -1.4108 4.4962 -0.3593
H 0.1737 2.9779 0.4471
H 3.1290 1.8126 0.6757
H 3.9556 2.6924 3.4632
H 4.5658 1.1469 2.7117
H 2.8174 1.3825 3.0342
H 2.5270 4.2208 2.2274
H 1.4764 2.8452 1.9601
H 2.0689 3.8000 0.4858
H 3.6613 5.2485 0.8467
H 5.2712 6.5981 0.0785
H 7.3642 5.7672 -0.6949
H 8.2973 2.1979 -1.2645
H 7.7605 4.8646 -2.6579
H 7.0123 3.2739 -3.0047
H 8.7890 3.5340 -3.2589
H 9.5600 4.9602 -0.7554
H 10.3342 3.4258 -1.2338
H 9.6751 3.5901 0.4246
H 8.2977 1.3884 0.7330
H 8.4140 -1.1748 0.6775
H 7.5728 -2.1558 2.3875
H 6.7062 -4.7841 3.7031
H 5.8836 -3.1749 3.8389
H 7.5610 -3.4112 4.4610
H 8.7518 -5.0096 2.1478
H 9.4974 -3.6166 2.9674
H 9.2786 -3.5760 1.1818
H 6.6518 -5.7060 1.6707
H 5.4193 -6.5887 -0.1746
H 4.7016 -5.1858 -1.9570
H 5.3191 -3.5581 -3.2486
H 3.8966 -1.1124 -2.1439
H 3.2680 -2.5103 -3.1219
H 4.4042 -1.3641 -3.8677
H 6.7991 -1.2494 -2.1556
H 7.6097 -2.6962 -2.3111
H 7.3246 -3.0946 -2.5091
