69
 
P 0.9656 -0.0708 -0.0617
C 0.1912 0.1556 -1.6730
C -1.1827 0.1962 -1.9152
C -1.6568 0.2592 -3.2240
C -0.7670 0.3188 -4.3157
O -1.2023 0.2995 -5.6014
C -2.5134 0.0767 -5.9731
C 0.6077 0.3773 -4.0669
C 1.0815 0.2941 -2.7561
C 0.4562 -1.7892 0.0978
C 1.3748 -2.8332 0.1701
C 0.9217 -4.1415 0.3816
C -0.4570 -4.4172 0.5332
O -0.9348 -5.6723 0.7232
C -0.1658 -6.8143 0.6795
C -1.3662 -3.3619 0.4980
C -0.9128 -2.0660 0.2921
C 0.4781 1.1488 1.1620
C -0.2486 0.7018 2.2804
C -0.7094 1.6021 3.2359
C -0.4474 2.9759 3.0979
O -0.9170 3.8875 3.9916
C -1.7382 3.5907 5.0649
C 0.3114 3.4153 1.9975
C 0.7734 2.5049 1.0326
Ag 3.4256 -0.0708 -0.0617
P 5.8856 -0.0708 -0.0617
C 6.7671 0.7726 1.2954
C 6.3777 -1.8134 0.0518
C 6.3860 0.8919 -1.5480
C 5.8639 2.3299 -1.4478
C 7.9292 0.9029 -1.6617
C 5.8028 0.2166 -2.7974
H -1.9012 0.1624 -1.1208
H -2.7248 0.2409 -3.3742
H -2.5919 0.0491 -7.0775
H -3.1602 0.8898 -5.5840
H -2.8602 -0.9032 -5.5725
H 1.3142 0.4520 -4.8875
H 2.1544 0.3112 -2.5898
H 2.4345 -2.6360 0.0832
H 1.6526 -4.9323 0.4375
H -0.8049 -7.7006 0.8615
H 0.6200 -6.7729 1.4625
H 0.3017 -6.9084 -0.3248
H -2.4285 -3.5353 0.6409
H -1.6478 -1.2824 0.3252
H -0.4799 -0.3467 2.4217
H -1.2801 1.2181 4.0725
H -1.9854 4.5187 5.6184
H -1.2245 2.8910 5.7581
H -2.6872 3.1321 4.7074
H 0.5314 4.4673 1.8776
H 1.3425 2.8526 0.1824
H 6.4158 0.3013 2.2411
H 6.4100 1.8227 1.3624
H 7.8645 0.7218 1.2542
H 6.0077 -2.2419 1.0067
H 7.4890 -1.8603 0.0590
H 5.9887 -2.3910 -0.8068
H 6.2949 2.8555 -0.5732
H 4.7574 2.3286 -1.3561
H 6.1533 2.9091 -2.3498
H 8.4034 1.3904 -0.7861
H 8.2583 1.4688 -2.5582
H 8.3332 -0.1308 -1.7375
H 4.6952 0.1823 -2.7396
H 6.1829 -0.8234 -2.8997
H 6.0943 0.7783 -3.7118
