84
 
P 0.9426 -0.0478 0.0665
C 0.1690 1.1178 1.3214
C -1.0232 1.8869 1.1907
C -1.3649 2.8786 2.1667
C -2.6091 3.7263 2.0907
C -0.5184 3.1146 3.2539
C 0.6202 2.3446 3.4233
C 0.9539 1.3573 2.4828
C 0.4323 0.4321 -1.6365
C 1.4119 0.6858 -2.6091
C 1.0500 0.9777 -3.9459
C 2.0775 1.2871 -4.9894
C -0.2971 0.9883 -4.3237
C -1.2819 0.6836 -3.3904
C -0.9285 0.4012 -2.0569
C 0.5224 -1.6462 0.7727
C 1.5270 -2.5544 1.1119
C 1.1743 -3.8855 1.4433
C 2.2196 -4.9311 1.6717
C -0.1782 -4.2682 1.4913
C -1.1767 -3.3484 1.1790
C -0.8296 -2.0466 0.8069
Ag 3.4026 -0.0478 0.0665
C 5.5526 -0.0478 0.0665
N 6.3261 1.0565 0.0459
C 5.8216 2.4284 0.1272
C 4.9539 2.6249 1.3937
C 5.7117 2.4121 2.7161
C 4.7756 2.6359 3.9073
C 7.5991 0.5934 0.0631
C 7.5792 -0.7840 0.0618
C 8.7653 -1.5333 0.0181
C 9.9863 -0.8393 0.0255
C 10.0078 0.5687 0.0814
C 8.8063 1.3043 0.0952
N 6.2951 -1.2143 0.0908
C 5.8386 -2.6445 0.0455
C 5.2901 -3.0357 -1.3291
C 6.1992 -3.1065 -2.3967
C 5.7682 -3.3637 -3.6987
C 4.4173 -3.5840 -3.9618
C 3.5013 -3.6060 -2.9073
C 3.9314 -3.3424 -1.5917
H -1.6698 1.7558 0.3408
H -3.2679 3.4217 1.2565
H -2.3437 4.8021 1.9763
H -3.1816 3.6291 3.0425
H -0.7478 3.8961 3.9787
H 1.2543 2.5388 4.2835
H 1.8678 0.8057 2.6572
H 2.4543 0.6442 -2.3181
H 3.1056 1.1804 -4.5898
H 1.9255 2.3342 -5.3264
H 1.9597 0.6121 -5.8664
H -0.5794 1.2141 -5.3502
H -2.3181 0.6638 -3.7192
H -1.7326 0.1388 -1.3827
H 2.5715 -2.2184 1.0460
H 3.2387 -4.5120 1.5546
H 2.0883 -5.7263 0.9028
H 2.1125 -5.3847 2.6777
H -0.4583 -5.2882 1.7387
H -2.2160 -3.6617 1.1822
H -1.6195 -1.3720 0.5013
H 5.1884 2.6307 -0.7613
H 6.6571 3.1581 0.1433
H 4.0929 1.9220 1.3616
H 4.5511 3.6602 1.3849
H 6.5612 3.1258 2.7869
H 6.1124 1.3764 2.7706
H 4.3727 3.6716 3.8939
H 5.3211 2.4825 4.8626
H 3.9255 1.9213 3.8699
H 8.7738 -2.6132 -0.0221
H 10.9183 -1.3916 -0.0034
H 10.9605 1.0833 0.1060
H 8.8374 2.3837 0.1296
H 5.1341 -2.8549 0.8734
H 6.6972 -3.3351 0.2101
H 7.2538 -2.9580 -2.2177
H 6.4894 -3.3770 -4.5039
H 4.0884 -3.7482 -4.9820
H 2.4573 -3.8123 -3.1234
H 3.1932 -3.3581 -0.8095
