108
 
P 0.9421 -0.0680 -0.0449
C 0.0838 -0.9907 -1.4991
C -1.3382 -1.1341 -1.6212
C -2.2818 -0.6382 -0.6444
C -1.9577 -1.7023 -2.7218
C -1.2396 -2.1931 -3.7797
C -2.0086 -2.7975 -4.9230
C 0.1550 -2.0996 -3.7456
C 0.8320 -1.5040 -2.6371
C 2.3296 -1.3846 -2.7705
C 0.4722 -1.1441 1.4650
C 1.2538 -2.2747 1.9343
C 2.6071 -2.6829 1.4844
C 0.8340 -3.0764 3.0084
C -0.2988 -2.7852 3.7229
C -0.7129 -3.6491 4.8750
C -1.0083 -1.6443 3.4123
C -0.6606 -0.7958 2.3413
C -1.5489 0.4730 2.3201
C 0.4065 1.6683 -0.1987
C -0.4134 2.2227 -1.2398
C -0.7906 1.6266 -2.5733
C -0.9588 3.4913 -1.0688
C -0.6806 4.2716 0.0406
C -1.3004 5.6318 0.1358
C 0.1770 3.7874 1.0303
C 0.7214 2.4927 0.9407
C 1.5799 2.0130 2.1214
Ag 3.4021 -0.0680 -0.0449
P 5.8621 -0.0680 -0.0449
C 6.5628 0.8924 1.4390
C 6.1000 0.2650 2.7760
C 8.0853 1.1066 1.4889
C 5.9125 2.2913 1.4099
C 6.4626 -1.8836 0.0712
C 5.8807 -2.5894 -1.1742
C 7.9992 -2.0301 -0.0081
C 6.0396 -2.7045 1.2807
C 6.3530 0.8795 -1.4944
C 5.4097 1.3755 -2.3828
C 5.8301 1.9006 -3.6218
C 7.2111 1.9340 -4.0018
N 7.6590 2.3528 -5.3253
C 6.7417 2.7775 -6.3748
C 9.0570 2.2961 -5.7657
C 8.1339 1.4771 -3.0380
C 7.7106 0.9586 -1.8270
H -1.6257 -0.3107 0.0852
H -2.9449 -1.4434 -0.2728
H -2.8674 0.2136 -1.0447
H -3.0412 -1.7452 -2.7535
H -3.1080 -2.7651 -4.7313
H -1.7307 -3.8632 -5.0275
H -1.8286 -2.2431 -5.8661
H 0.7051 -2.4661 -4.6082
H 2.7059 -1.8798 -3.6997
H 2.8255 -1.8669 -1.9148
H 2.6248 -0.3178 -2.8456
H 3.0165 -2.0413 0.7111
H 2.6608 -3.7485 1.1719
H 3.2428 -2.6172 2.4144
H 1.4271 -3.9330 3.3275
H -0.0436 -4.5292 4.9902
H -1.7477 -4.0186 4.7174
H -0.6628 -3.0482 5.8056
H -1.8586 -1.4141 4.0398
H -2.1596 0.5504 3.2355
H -2.3601 0.6038 1.5937
H -0.9728 1.3931 2.3369
H -0.2035 0.7897 -2.9083
H -0.5150 2.3356 -3.3711
H -1.8832 1.4347 -2.6474
H -1.6175 3.8839 -1.8347
H -1.9631 5.8311 -0.7364
H -0.4985 6.3953 0.1371
H -1.9164 5.7144 1.0544
H 0.3844 4.4094 1.8950
H 1.7403 2.8088 2.8816
H 2.5686 1.6563 1.7799
H 1.1293 1.1751 2.6871
H 6.6666 -0.6305 3.0384
H 5.0059 0.0552 2.7688
H 6.3104 0.9400 3.6334
H 8.6521 0.1813 1.6313
H 8.3522 1.7462 2.3558
H 8.4452 1.6514 0.6042
H 4.8054 2.2147 1.4031
H 6.2384 2.8740 0.5262
H 6.1949 2.8721 2.3187
H 6.2089 -2.1012 -2.1174
H 4.7758 -2.5850 -1.1373
H 6.2025 -3.6545 -1.2220
H 8.4410 -1.5129 -0.8730
H 8.2885 -3.0972 -0.1189
H 8.4858 -1.7192 0.9270
H 4.9892 -2.6242 1.3639
H 6.5147 -2.4396 2.2251
H 6.2937 -3.7788 1.1432
H 4.3502 1.2960 -2.1285
H 5.0362 2.2233 -4.2648
H 5.6837 2.8025 -6.0926
H 6.8200 2.0771 -7.2346
H 7.0093 3.7990 -6.7150
H 9.7904 1.9437 -5.0301
H 9.3971 3.3027 -6.0873
H 9.1474 1.5988 -6.6273
H 9.1985 1.4497 -3.1823
H 8.4817 0.5662 -1.1916
