66
 
P 1.0227 0.0126 -0.0966
C 0.3610 -1.6389 -0.3895
C 1.1829 -2.7591 -0.0618
C 2.5306 -2.6552 0.6298
C 0.7642 -4.0493 -0.4203
C -0.4254 -4.2427 -1.1175
C -1.2233 -3.1497 -1.4533
C -0.8321 -1.8534 -1.1007
C 0.5632 0.5131 1.6097
C -0.7801 0.5705 2.1308
C -2.0390 0.2112 1.3864
C -0.9950 1.0271 3.4445
C 0.0622 1.4652 4.2300
C 1.3605 1.4198 3.7321
C 1.6103 0.9346 2.4436
C 0.6395 1.1813 -1.4596
C 1.0436 1.0052 -2.8200
C 1.9144 -0.1167 -3.3080
C 0.6361 1.9396 -3.7949
C -0.1278 3.0498 -3.4477
C -0.5109 3.2380 -2.1241
C -0.1400 2.3112 -1.1433
Ag 3.4827 0.0126 -0.0966
P 5.9427 0.0126 -0.0966
C 6.8554 -1.5563 -0.2438
C 6.4101 0.9524 -1.5795
C 6.5065 0.7808 1.4775
C 6.0133 -0.0496 2.6688
C 8.0517 0.8306 1.4912
C 5.9607 2.2123 1.5779
H 2.8902 -1.6507 0.8246
H 3.3147 -3.1569 0.0285
H 2.4564 -3.1463 1.6232
H 1.3834 -4.9086 -0.1874
H -0.7152 -5.2424 -1.4163
H -2.1357 -3.3087 -2.0127
H -1.4500 -1.0298 -1.4220
H -1.8908 0.1323 0.3069
H -2.7941 1.0174 1.5261
H -2.4800 -0.7235 1.8015
H -1.9997 1.0801 3.8548
H -0.1330 1.8515 5.2235
H 2.1757 1.7742 4.3472
H 2.6282 0.9223 2.0825
H 2.3424 -0.7151 -2.4837
H 2.7625 0.3207 -3.8826
H 1.3408 -0.7728 -3.9977
H 0.9276 1.8195 -4.8334
H -0.4169 3.7681 -4.2072
H -1.1031 4.1050 -1.8602
H -0.4728 2.4826 -0.1299
H 6.4888 -2.0520 -1.1727
H 6.5324 -2.2205 0.5877
H 7.9505 -1.4707 -0.2891
H 6.0452 0.4380 -2.4908
H 7.5207 1.0004 -1.6236
H 6.0085 1.9823 -1.5313
H 6.4071 -1.0858 2.6195
H 4.9042 -0.0912 2.6797
H 6.3625 0.4005 3.6231
H 8.4909 -0.1867 1.4399
H 8.4296 1.2940 2.4259
H 8.4413 1.4172 0.6311
H 4.8508 2.2117 1.5619
H 6.3275 2.8339 0.7328
H 6.3057 2.6904 2.5209
