55
 
P 1.0820 0.0310 0.0482
C 0.3280 1.4448 -0.8768
C -1.1889 1.4944 -0.9537
C 0.8807 2.7583 -0.3004
C 0.5300 -1.5117 -0.7819
C 1.0055 -1.6498 -2.2240
C 0.9713 -2.7213 0.0529
C 0.6137 0.3362 1.7802
Ag 3.5420 0.0310 0.0482
C 5.6920 0.0310 0.0482
N 6.3944 -1.0292 -0.0888
C 5.8468 -2.3712 -0.1569
C 5.0140 -2.6478 1.0962
C 4.9795 -2.5466 -1.4010
C 7.8080 -0.7157 -0.0644
C 7.8361 0.8152 -0.1967
N 6.4939 1.1801 0.1683
C 6.0426 2.5125 0.5103
C 4.9554 2.9552 -0.4615
C 5.5232 2.5420 1.9543
H 0.7156 1.3847 -1.9178
H -1.6376 1.5345 0.0563
H -1.5722 0.6281 -1.5273
H -1.4813 2.4166 -1.5086
H 0.5211 2.9341 0.7324
H 0.5765 3.6245 -0.9241
H 1.9879 2.7356 -0.2873
H -0.5810 -1.4939 -0.7852
H 2.1014 -1.7762 -2.2753
H 0.7040 -0.7703 -2.8238
H 0.5298 -2.5491 -2.6748
H 2.0782 -2.7712 0.1244
H 0.5965 -3.6652 -0.3979
H 0.5542 -2.6552 1.0818
H -0.4966 0.3369 1.8453
H 1.0189 1.2829 2.1769
H 0.9817 -0.5078 2.3993
H 6.6843 -3.1044 -0.2117
H 4.1542 -1.9224 1.1406
H 5.6650 -2.5478 1.9937
H 4.6306 -3.6900 1.0711
H 4.1218 -1.8493 -1.3532
H 4.5947 -3.5883 -1.4502
H 5.5686 -2.3402 -2.3182
H 8.3923 -1.1937 -0.8793
H 8.1985 -1.0295 0.9292
H 7.9574 1.0995 -1.2676
H 8.6349 1.2768 0.4199
H 6.9043 3.2184 0.4581
H 4.1133 2.2059 -0.4618
H 5.3884 3.0230 -1.4805
H 4.6097 3.9741 -0.1740
H 4.6366 1.8842 2.0694
H 5.2377 3.5793 2.2366
H 6.3150 2.2064 2.6596
