65
 
P 0.9462 -0.0336 0.0773
C 0.2354 1.4655 -0.6343
C -1.1194 1.7200 -0.8623
C -1.5011 2.9008 -1.5105
C -0.5435 3.8578 -1.9121
O -0.8828 4.9666 -2.6212
C -2.1430 5.1986 -3.1372
C 0.7994 3.6444 -1.5913
C 1.1817 2.4583 -0.9631
C 0.5904 -1.2165 -1.2483
C 1.6521 -1.8752 -1.8681
C 1.4154 -2.8480 -2.8353
C 0.1045 -3.2052 -3.2031
O -0.1347 -4.1229 -4.1791
C 0.8515 -4.6451 -4.9981
C -0.9712 -2.5897 -2.5458
C -0.7320 -1.6012 -1.5742
C 0.4461 -0.1859 1.7961
C -0.9187 -0.2754 2.0983
C -1.3516 -0.3261 3.4167
C -0.4276 -0.3090 4.4749
O -0.8422 -0.2861 5.7727
C -2.1672 -0.1682 6.1656
C 0.9511 -0.2980 4.1717
C 1.3916 -0.2362 2.8301
Ag 3.4062 -0.0336 0.0773
P 5.8662 -0.0336 0.0773
O 6.6737 -1.5392 -0.1966
C 8.0779 -1.4543 -0.1761
C 8.5369 -0.0281 0.0760
C 10.0645 0.0425 0.0886
C 7.9141 0.8352 -1.0896
O 6.5236 0.5995 -1.3465
O 6.5260 0.0840 1.6299
C 7.9170 0.3847 1.4676
H -1.8843 1.0195 -0.5773
H -2.5487 3.0531 -1.7166
H -2.1503 6.1385 -3.7241
H -2.8748 5.2858 -2.3088
H -2.4379 4.3625 -3.8123
H 1.5571 4.3771 -1.8554
H 2.2349 2.3073 -0.7464
H 2.6740 -1.6543 -1.5959
H 2.2707 -3.3232 -3.2892
H 0.4163 -5.3492 -5.7338
H 1.6045 -5.1923 -4.3922
H 1.3516 -3.8177 -5.5515
H -1.9919 -2.8746 -2.7875
H -1.5839 -1.1640 -1.0725
H -1.6663 -0.2920 1.3194
H -2.4171 -0.3611 3.5999
H -2.2433 -0.1296 7.2707
H -2.7517 -1.0397 5.8017
H -2.6096 0.7686 5.7545
H 1.6776 -0.3134 4.9757
H 2.4579 -0.2124 2.5777
H 8.4575 -1.8187 -1.1554
H 8.4542 -2.1328 0.6204
H 10.4641 -0.3127 -0.8869
H 10.4640 -0.6260 0.8830
H 10.4080 1.0786 0.2722
H 8.4440 0.5660 -2.0289
H 8.0949 1.9156 -0.9028
H 8.4455 -0.1924 2.2574
H 8.1005 1.4626 1.6629
