61
 
P 1.0180 0.0923 0.0340
C 0.2703 -1.5809 0.2450
C 1.1569 -2.7007 0.3432
C 2.6408 -2.6364 0.1001
C 0.6649 -3.9765 0.6498
C -0.6937 -4.1925 0.8053
C -1.5847 -3.1280 0.6592
C -1.1136 -1.8231 0.3969
C 0.6283 1.2214 1.4422
C -0.1267 2.4506 1.3365
C -0.8637 2.9461 0.1192
C -0.2236 3.3074 2.4493
C 0.3565 2.9693 3.6621
C 1.0372 1.7621 3.7898
C 1.1757 0.9005 2.6931
C 0.5925 0.4816 -1.7219
C 0.9660 1.7396 -2.3329
C 1.7665 2.8476 -1.6790
C 0.5224 2.0421 -3.6342
C -0.2835 1.1588 -4.3374
C -0.6485 -0.0512 -3.7624
C -0.2156 -0.3889 -2.4795
Ag 3.4780 0.0923 0.0340
N 5.5780 0.0923 0.0340
C 6.2103 0.8265 0.9784
C 5.3723 1.6601 1.8812
C 7.6106 0.7557 1.1055
C 8.3345 -0.0772 0.2483
C 7.6692 -0.7867 -0.7461
C 6.2749 -0.6830 -0.8514
C 5.5629 -1.3943 -1.9555
H 2.9826 -1.7199 -0.4013
H 2.8929 -3.4022 -0.6590
H 3.1959 -2.8637 1.0376
H 1.3470 -4.8164 0.7498
H -1.0453 -5.1952 1.0268
H -2.6426 -3.3284 0.7682
H -1.8299 -1.0185 0.3201
H -1.0304 2.1620 -0.6337
H -0.3540 3.8395 -0.2901
H -1.8779 3.3051 0.4041
H -0.7646 4.2484 2.3802
H 0.2679 3.6464 4.5044
H 1.4763 1.5049 4.7429
H 1.7356 -0.0142 2.8174
H 1.9654 2.6878 -0.6045
H 1.2200 3.8152 -1.7868
H 2.7269 2.9934 -2.2126
H 0.7739 2.9913 -4.0992
H -0.6362 1.4214 -5.3271
H -1.2878 -0.7299 -4.3086
H -0.5558 -1.3298 -2.0936
H 4.2801 1.5213 1.5983
H 5.6810 2.7234 1.7727
H 5.5595 1.3474 2.9310
H 8.1367 1.3153 1.8678
H 9.4101 -0.1710 0.3426
H 8.2345 -1.4189 -1.4219
H 6.2855 -1.8834 -2.6468
H 4.9967 -0.6434 -2.5466
H 4.8786 -2.1599 -1.5566
