55
 
P 1.0107 -0.0972 0.0209
C 0.2393 1.4789 0.4401
C -1.1250 1.7787 0.3899
C -1.5764 3.0500 0.8169
C -3.0282 3.4059 0.7709
C -0.6608 4.0007 1.3031
C 0.6951 3.6970 1.3610
C 1.1403 2.4499 0.9272
C 0.5504 -0.2488 -1.7120
C 0.9146 0.6788 -2.6757
C 0.4836 0.5150 -4.0044
C 0.8210 1.5449 -5.0279
C -0.2882 -0.6027 -4.3690
C -0.6266 -1.5571 -3.4131
C -0.2137 -1.3812 -2.0906
C 0.6325 -1.4030 1.1876
C 1.7010 -2.0522 1.8139
C 1.4256 -3.1827 2.6292
C 2.5205 -3.9486 3.2973
C 0.1011 -3.6378 2.7939
C -0.9536 -2.9731 2.1725
C -0.6939 -1.8547 1.3743
Ag 3.4707 -0.0972 0.0209
N 5.5707 -0.0972 0.0209
C 6.2133 0.8986 -0.6439
F 5.4903 1.8587 -1.2704
C 7.6096 0.9472 -0.6555
C 8.3310 -0.0525 0.0010
F 9.6866 -0.0292 -0.0087
C 7.6508 -1.0757 0.6677
C 6.2519 -1.0735 0.6770
F 5.5707 -2.0557 1.3154
H -1.8240 1.0406 0.0274
H -3.6372 2.5491 0.4189
H -3.1743 4.2604 0.0768
H -3.3772 3.6975 1.7846
H -0.9958 4.9737 1.6478
H 1.4013 4.4237 1.7509
H 2.2019 2.2341 0.9980
H 1.5135 1.5273 -2.3838
H 1.4615 2.3395 -4.5918
H -0.1243 2.0076 -5.3792
H 1.3525 1.0806 -5.8835
H -0.6264 -0.7353 -5.3910
H -1.2173 -2.4246 -3.6963
H -0.5039 -2.1380 -1.3697
H 2.7318 -1.6724 1.5986
H 3.5040 -3.4769 3.1082
H 2.5321 -4.9850 2.8961
H 2.3410 -3.9929 4.3939
H -0.1160 -4.5198 3.3925
H -1.9683 -3.3455 2.2917
H -1.5287 -1.3807 0.8715
H 8.1255 1.7499 -1.1670
H 8.2019 -1.8594 1.1714
