37
 
P 0.9041 0.0225 0.0175
C 0.1573 -1.0922 -1.2013
C -1.2145 -1.3098 -1.3832
C -1.6561 -2.2345 -2.3414
C -0.7384 -2.9484 -3.1199
F -1.1728 -3.8728 -4.0127
C 0.6270 -2.7118 -2.9736
C 1.0710 -1.7840 -2.0279
C 0.4378 -0.9717 1.4514
C 0.7988 -2.3079 1.6683
C 0.3404 -2.9712 2.8226
C -0.4640 -2.3043 3.7581
F -0.9136 -2.9483 4.8642
C -0.8049 -0.9702 3.5538
C -0.3573 -0.3119 2.4112
C 0.3523 1.7178 -0.1747
C -1.0260 1.9990 -0.1766
C -1.4862 3.3106 -0.2553
C -0.5719 4.3610 -0.3141
F -1.0247 5.6379 -0.3797
C 0.8059 4.0933 -0.2889
C 1.2740 2.7675 -0.2216
Ag 3.3641 0.0225 0.0175
C 5.5141 0.0225 0.0175
O 6.7322 0.0225 0.0175
H -1.9470 -0.7904 -0.7962
H -2.7145 -2.4087 -2.4719
H 1.3414 -3.2544 -3.5843
H 2.1402 -1.6204 -1.9321
H 1.4172 -2.8329 0.9551
H 0.6026 -4.0052 2.9962
H -1.4195 -0.4424 4.2756
H -0.6410 0.7252 2.2809
H -1.7582 1.2147 -0.0955
H -2.5529 3.5073 -0.2563
H 1.5047 4.9175 -0.3112
H 2.3423 2.5438 -0.1782
