46
 
P 0.9115 0.0401 -0.0236
C 0.1669 -0.7368 1.4801
C -1.3507 -0.7491 1.5771
C 0.7335 -2.1595 1.6209
C 0.3629 1.7923 -0.0622
C 0.8490 2.6211 1.1205
C 0.8025 2.4347 -1.3850
C 0.4381 -1.0755 -1.3816
Ag 3.3715 0.0401 -0.0236
N 5.4715 0.0401 -0.0236
C 6.0956 1.2389 0.0252
C 5.2521 2.4653 0.0703
C 7.4960 1.3024 0.0316
C 8.2389 0.1138 -0.0143
C 9.7402 0.1462 -0.0084
C 7.5641 -1.1140 -0.0665
C 6.1597 -1.1330 -0.0706
C 5.4033 -2.4239 -0.1270
H 0.5537 -0.1708 2.3561
H -1.8016 -1.2761 0.7158
H -1.7386 0.2854 1.6590
H -1.6387 -1.2857 2.5114
H 0.3705 -2.8208 0.8093
H 0.4290 -2.6099 2.5888
H 1.8474 -2.1383 1.5944
H -0.7485 1.7798 -0.0476
H 1.9499 2.7525 1.0878
H 0.5505 2.1501 2.0766
H 0.3676 3.6243 1.0754
H 1.9105 2.4424 -1.4718
H 0.4284 3.4789 -1.4553
H 0.3836 1.8729 -2.2486
H -0.6725 -1.1054 -1.4356
H 0.8417 -2.0958 -1.2646
H 0.8039 -0.6441 -2.3363
H 4.1606 2.1636 0.0461
H 5.5033 3.1065 -0.8024
H 5.4926 3.0314 0.9969
H 7.9986 2.2612 0.0712
H 10.1244 1.1878 0.0342
H 10.1308 -0.3320 -0.9313
H 10.1244 -0.4033 0.8769
H 8.1269 -2.0399 -0.1032
H 6.0949 -3.2946 -0.1620
H 4.7640 -2.4425 -1.0334
H 4.7556 -2.5176 0.7687
