77
 
P 0.9635 0.0347 -0.0864
C 0.1700 1.6224 0.2439
C -1.1941 1.9078 0.1551
C -1.6421 3.2285 0.4004
C -3.0870 3.5821 0.3099
C -0.7254 4.2421 0.7338
C 0.6287 3.9556 0.8042
C 1.0615 2.6637 0.5467
C 0.5033 -0.3005 -1.7904
C 0.8651 0.5391 -2.8425
C 0.4285 0.2523 -4.1492
C 0.7657 1.1738 -5.2745
C -0.3489 -0.8922 -4.3975
C -0.6885 -1.7457 -3.3496
C -0.2697 -1.4485 -2.0521
C 0.5163 -1.0969 1.2502
C 0.9901 -2.4215 1.1187
C 0.5572 -3.4378 1.9858
C 1.0101 -4.8636 1.8048
C -0.3448 -3.1193 3.0065
C -0.8049 -1.8049 3.1554
C -0.3815 -0.7931 2.2793
Ag 3.4235 0.0347 -0.0864
C 5.5735 0.0347 -0.0864
N 6.3349 0.6568 0.8369
C 5.8597 1.5045 1.9404
C 4.3257 1.4974 1.9579
C 6.3862 0.9654 3.2681
C 6.3557 2.9574 1.7260
C 7.6144 0.4319 0.4711
C 7.6081 -0.3528 -0.6589
N 6.3218 -0.5990 -1.0035
C 5.7968 -1.4730 -2.0646
C 6.9602 -2.0853 -2.8797
C 4.9964 -2.6364 -1.4279
C 4.8540 -0.6529 -2.9533
H -1.8881 1.1263 -0.1171
H -3.6995 2.6907 0.0698
H -3.2267 4.3447 -0.4860
H -3.4198 4.0021 1.2822
H -1.0539 5.2554 0.9345
H 1.3479 4.7296 1.0536
H 2.1088 2.4813 0.5822
H 1.4633 1.4170 -2.6408
H 1.4110 2.0065 -4.9255
H -0.1774 1.6021 -5.6740
H 1.2943 0.6214 -6.0787
H -0.6931 -1.1238 -5.3995
H -1.2862 -2.6309 -3.5408
H -0.5619 -2.1179 -1.2526
H 1.6613 -2.6768 0.3049
H 1.7207 -4.9689 0.9569
H 0.1300 -5.5095 1.5917
H 1.5058 -5.2329 2.7270
H -0.7038 -3.8947 3.6743
H -1.5189 -1.5807 3.9355
H -0.7923 0.1987 2.3814
H 3.9560 0.4712 2.1231
H 4.0156 1.8948 0.9784
H 3.9094 2.1394 2.7587
H 6.0331 -0.0772 3.4115
H 6.0239 1.5973 4.1061
H 7.4962 0.9725 3.2698
H 5.9923 3.3689 0.7575
H 7.4654 3.0072 1.7160
H 5.9914 3.6247 2.5368
H 8.4910 0.8111 0.9795
H 8.4876 -0.7250 -1.1664
H 7.6142 -2.6952 -2.2127
H 7.5818 -1.2851 -3.3325
H 6.5938 -2.7536 -3.6855
H 5.6385 -3.2378 -0.7469
H 4.5963 -3.3179 -2.2106
H 4.1357 -2.2569 -0.8365
H 5.4142 0.1948 -3.3996
H 3.9983 -0.2548 -2.3408
H 4.4635 -1.2875 -3.7773
