81
 
P 1.0891 -0.0117 -0.0439
C 0.3631 1.5946 0.3240
C -1.0002 1.9379 0.2274
C -2.0587 0.9563 -0.1695
C -1.3828 3.2734 0.4618
C -0.4310 4.2545 0.7604
C 0.9172 3.9185 0.8277
C 1.3097 2.5999 0.6124
C 0.5716 -0.3077 -1.8266
C 0.9745 0.5195 -2.9109
C 1.9599 1.6158 -2.7656
C 0.4528 0.3247 -4.2054
C -0.4258 -0.7141 -4.4755
C -0.7970 -1.5755 -3.4531
C -0.3216 -1.3686 -2.1483
C 0.6862 -1.0455 1.4216
C 0.5687 -2.4803 1.2903
C 0.9555 -3.2970 0.0734
C 0.0326 -3.2337 2.3472
C -0.3384 -2.6246 3.5366
C -0.1362 -1.2566 3.7080
C 0.3657 -0.4697 2.6612
Ag 3.5491 -0.0117 -0.0439
P 6.0091 -0.0117 -0.0439
C 6.7444 0.3356 1.5676
C 7.6008 -0.5484 2.2386
C 7.9265 -0.3176 3.5837
C 7.4046 0.7906 4.2603
C 6.5791 1.6913 3.5877
C 6.2522 1.4669 2.2481
C 6.4778 -1.7150 -0.5788
C 7.2215 -1.9098 -1.7599
C 7.5537 -3.1982 -2.2047
C 7.1669 -4.3190 -1.4722
C 6.4776 -4.1525 -0.2697
C 6.1335 -2.8613 0.1796
C 6.5124 1.4527 -1.0063
C 7.8859 1.7476 -1.2616
C 9.0378 0.8600 -0.8655
C 8.2281 2.9389 -1.9203
C 7.2462 3.8264 -2.3468
C 5.9014 3.5233 -2.1451
C 5.5364 2.3451 -1.4801
H -1.6578 -0.0485 -0.3648
H -2.5495 1.3133 -1.1017
H -2.8049 0.8643 0.6402
H -2.4222 3.5631 0.3889
H -0.7352 5.2808 0.9228
H 1.6606 4.6807 1.0350
H 2.3704 2.3676 0.6498
H 2.4715 1.5396 -1.7983
H 1.4388 2.5856 -2.8849
H 2.7339 1.5049 -3.5577
H 0.7426 0.9790 -5.0196
H -0.8111 -0.8487 -5.4811
H -1.4748 -2.3930 -3.6746
H -0.6931 -2.0419 -1.3987
H 1.4057 -2.7007 -0.7364
H 0.0683 -3.8549 -0.3035
H 1.7192 -4.0605 0.3396
H -0.1170 -4.3054 2.2405
H -0.7767 -3.2220 4.3278
H -0.4027 -0.8020 4.6511
H 0.4804 0.5906 2.8207
H 7.9761 -1.4356 1.7528
H 8.5551 -1.0180 4.1162
H 7.6258 0.9440 5.3098
H 6.1627 2.5426 4.1144
H 5.5640 2.1494 1.7616
H 7.5470 -1.0684 -2.3508
H 8.1080 -3.3305 -3.1259
H 7.4098 -5.3138 -1.8358
H 6.2075 -5.0333 0.3040
H 5.6013 -2.7709 1.1172
H 8.7349 -0.0793 -0.3764
H 9.7050 1.4122 -0.1749
H 9.6189 0.5821 -1.7740
H 9.2694 3.1840 -2.0966
H 7.5347 4.7486 -2.8365
H 5.1446 4.2159 -2.4916
H 4.4935 2.1471 -1.3164
