66
 
P 1.1413 0.3307 0.5313
Cl -0.0938 1.8810 1.0710
Cl 0.2995 -0.1501 -1.3167
Cl 0.6922 -0.9780 2.0983
Ag 3.4640 -0.0431 0.1868
P 5.8884 -0.1632 0.0732
C 6.6334 1.5279 -0.3700
C 6.9276 2.5068 0.6581
C 6.9284 2.3078 2.1397
C 7.3102 3.8065 0.3465
C 7.3554 4.2511 -0.9554
C 7.7544 5.6627 -1.2351
C 7.0795 3.3661 -1.9915
C 6.7731 2.0038 -1.7405
C 6.6588 1.1415 -2.9872
C 6.5034 -0.6180 1.8382
C 5.5414 -0.7850 2.9003
C 4.0779 -0.6112 2.8032
C 5.9294 -1.0543 4.1971
C 7.2530 -1.1619 4.5427
C 7.6544 -1.4801 5.9127
C 8.2328 -0.9414 3.6257
C 7.9234 -0.6368 2.3161
C 9.2217 -0.2972 1.6203
C 6.1147 -1.3194 -1.3962
C 5.2107 -1.5056 -2.4771
C 3.8154 -1.0250 -2.5297
C 5.6516 -2.1162 -3.6429
C 6.9361 -2.6161 -3.7647
C 7.3277 -3.3055 -5.0009
C 7.8022 -2.5619 -2.6998
C 7.3653 -1.9788 -1.5283
C 8.2376 -2.0807 -0.4060
H 6.5800 1.4305 2.4600
H 6.2195 2.8942 2.7385
H 7.9726 2.3195 2.5049
H 7.5641 4.4907 1.1548
H 8.0560 6.1853 -0.2994
H 6.9111 6.2127 -1.7005
H 8.6279 5.6409 -1.9166
H 7.1365 3.7521 -3.0076
H 6.7947 1.7064 -3.9384
H 5.7106 0.6958 -3.1466
H 7.3254 0.2596 -2.9394
H 3.9021 -0.2855 1.9043
H 3.6866 0.2463 3.4016
H 3.5402 -1.5546 2.9712
H 5.1731 -1.1617 4.9603
H 6.7541 -1.6154 6.5386
H 8.2781 -0.6424 6.2868
H 8.2359 -2.4233 5.8519
H 9.2716 -0.9807 3.9594
H 10.2451 -0.3229 2.0450
H 9.1829 0.7361 1.2172
H 9.5441 -1.2953 1.3263
H 3.6288 -0.5669 -1.6116
H 3.0510 -1.8237 -2.6058
H 3.6907 -0.3540 -3.3993
H 4.9837 -2.1749 -4.4826
H 6.4792 -3.2921 -5.7130
H 7.5149 -4.3503 -4.6883
H 8.2241 -2.8429 -5.4606
H 8.8065 -2.9825 -2.7682
H 9.2913 -2.3612 -0.6108
H 7.7842 -2.6558 0.4403
H 8.2012 -1.0627 -0.1785
