99
 
P 0.9685 0.0667 -0.0675
C 0.1935 0.2540 -1.7743
C -1.1448 0.2295 -2.2305
C -2.2693 -0.0739 -1.3361
C -1.4451 0.4535 -3.6090
C -0.4335 0.6307 -4.5546
C 0.8769 0.6039 -4.1323
C 1.1425 0.4409 -2.7707
C 0.6194 -1.7300 0.4703
C 1.0309 -2.9025 -0.2226
C 1.8597 -2.8711 -1.4418
C 0.6840 -4.1986 0.2518
C -0.0826 -4.3750 1.3953
C -0.4705 -3.2696 2.1059
C -0.1056 -2.0038 1.6661
C 0.3984 1.5492 1.0245
C 0.7432 2.9195 0.8148
C 1.6028 3.3708 -0.2920
C 0.2884 3.9456 1.6866
C -0.4810 3.6634 2.8043
C -0.8464 2.3644 3.0422
C -0.4436 1.3572 2.1691
Ag 3.4285 0.0667 -0.0675
P 5.8885 0.0667 -0.0675
C 6.9433 -1.5289 0.0124
C 6.8772 -2.5731 1.2002
C 5.5088 -3.2636 1.4086
C 4.9581 -3.8391 0.1030
C 4.9971 -2.7483 -0.9783
C 6.4907 -2.3487 -1.1684
C 6.3706 0.8493 -1.8031
C 5.8043 0.2422 -3.1535
C 4.3465 0.5168 -3.2546
C 4.0897 2.0198 -3.4163
C 4.6374 2.7551 -2.1964
C 6.1093 2.3947 -1.9495
C 6.3335 1.0486 1.5326
C 5.3211 1.6008 2.4085
C 3.8624 1.5253 2.2627
C 5.6196 2.3521 3.5390
C 6.9012 2.6384 3.9065
C 7.1070 3.4509 5.1594
C 7.9401 2.1734 3.1030
C 7.6934 1.3954 1.9284
C 8.9332 1.0028 1.1653
H -1.8931 -0.4532 -0.3698
H -2.8487 -0.8868 -1.8252
H -2.8965 0.8304 -1.2208
H -2.4645 0.4573 -3.9685
H -0.6553 0.7710 -5.6097
H 1.6817 0.7175 -4.8556
H 2.1059 0.4487 -2.4390
H 2.2484 -1.8620 -1.6625
H 1.3244 -3.3089 -2.2993
H 2.6794 -3.5607 -1.2507
H 1.0167 -5.0903 -0.2618
H -0.3634 -5.3605 1.7487
H -1.0574 -3.3832 3.0148
H -0.4345 -1.3127 2.3412
H 2.0320 2.5022 -0.7979
H 2.4145 4.0052 0.1302
H 0.9886 3.9702 -0.9932
H 0.5522 4.9805 1.5174
H -0.8031 4.4448 3.4842
H -1.4578 2.1264 3.9110
H -0.8683 0.4766 2.4861
H 8.0023 -1.2649 -0.1245
H 7.2493 -2.1785 2.1621
H 7.5739 -3.4078 0.9217
H 4.7922 -2.5232 1.8105
H 5.5959 -4.1059 2.1371
H 3.9403 -4.2305 0.3123
H 5.5595 -4.7074 -0.2510
H 4.2828 -1.9113 -0.6404
H 4.6428 -3.1442 -1.9509
H 6.7524 -1.7547 -2.0005
H 7.1106 -3.2480 -1.3648
H 7.4742 0.7559 -1.8321
H 5.8590 -0.8217 -3.3807
H 6.3090 0.6967 -4.0336
H 3.9906 0.0949 -2.3003
H 3.8914 -0.0245 -4.1126
H 3.0104 2.2527 -3.5232
H 4.5740 2.3675 -4.3588
H 4.0725 2.4547 -1.3053
H 4.5013 3.8493 -2.3637
H 6.5048 2.9699 -1.0902
H 6.6537 2.7569 -2.8559
H 3.6444 0.9973 1.4600
H 3.4488 2.5440 2.0975
H 3.3845 1.0100 3.1144
H 4.8102 2.7393 4.1537
H 6.1331 3.7219 5.6344
H 7.6291 4.4005 4.9313
H 7.6711 2.8578 5.9055
H 8.9507 2.4304 3.4050
H 9.8565 1.4381 1.6161
H 8.8868 1.3743 0.1228
H 9.0888 -0.0852 1.2183
