90
 
P 1.0452 0.0170 -0.0875
C 0.3126 -1.6277 -0.2823
C -1.0582 -1.8660 -0.2380
C -1.5411 -3.1777 -0.2686
C -0.6615 -4.2777 -0.3553
O -1.1032 -5.5625 -0.2839
C -2.4106 -5.9237 -0.0160
C 0.7106 -4.0360 -0.4878
C 1.1946 -2.7213 -0.4544
C 0.4579 0.1729 1.6214
C 0.8585 -0.6448 2.6843
C 0.2618 -0.4912 3.9465
C -0.7455 0.4755 4.1629
O -1.3932 0.6022 5.3521
C -1.2065 -0.2249 6.4416
C -1.1054 1.3209 3.1110
C -0.5050 1.1755 1.8588
C 0.6865 1.1603 -1.4289
C -0.6391 1.4865 -1.7822
C -0.8989 2.3862 -2.8158
C 0.1574 2.9905 -3.5184
O -0.0808 3.8397 -4.5615
C -1.3302 4.0792 -5.1197
C 1.4878 2.6940 -3.1325
C 1.7596 1.7750 -2.0856
Ag 3.5052 0.0170 -0.0875
P 5.9652 0.0170 -0.0875
C 6.5866 -0.3404 1.7381
C 6.0129 -1.6617 2.2664
C 8.0878 -0.3950 2.1866
C 5.9314 0.7728 2.5926
C 6.4472 -1.5303 -1.2033
C 5.8875 -1.2241 -2.6055
C 7.9711 -1.9204 -1.4279
C 5.8286 -2.8479 -0.7351
C 6.4734 1.7575 -0.6500
C 8.0144 2.1527 -0.8830
C 8.6290 1.2390 -1.9149
C 8.1514 3.5709 -1.4335
C 8.9148 2.0882 0.3567
H -1.7505 -1.0467 -0.1418
H -2.6058 -3.3276 -0.1923
H -2.4955 -7.0266 0.0601
H -3.0711 -5.5667 -0.8321
H -2.7406 -5.4842 0.9532
H 1.4063 -4.8666 -0.5807
H 2.2663 -2.5677 -0.5336
H 1.6119 -1.4055 2.5436
H 0.5736 -1.1434 4.7482
H -1.8885 0.0719 7.2646
H -0.1590 -0.1440 6.7973
H -1.4320 -1.2785 6.1635
H -1.8704 2.0791 3.2519
H -0.8260 1.8345 1.0616
H -1.4900 1.0584 -1.2689
H -1.9316 2.6056 -3.0647
H -1.2501 4.7901 -5.9687
H -2.0188 4.5189 -4.3667
H -1.7646 3.1291 -5.5054
H 2.3061 3.1723 -3.6554
H 2.7914 1.5134 -1.7496
H 6.6185 -2.5070 1.9219
H 4.9345 -1.7630 2.0336
H 6.1360 -1.7298 3.3724
H 8.7180 -1.0283 1.5347
H 8.1914 -0.8344 3.2071
H 8.5329 0.5876 2.4396
H 4.8253 0.7451 2.4912
H 6.2819 1.7798 2.2809
H 6.1757 0.6658 3.6741
H 6.3096 -0.2763 -2.9998
H 4.7863 -1.1207 -2.5722
H 6.1564 -2.0202 -3.3368
H 8.5062 -1.4050 -2.2535
H 8.0821 -2.9347 -1.8743
H 8.5657 -1.9425 -0.4939
H 4.7517 -2.7452 -0.5355
H 6.3778 -3.2712 0.1103
H 5.9805 -3.6327 -1.5126
H 6.0223 2.4943 0.0453
H 5.9718 1.8960 -1.6307
H 8.0171 1.1991 -2.8355
H 8.6789 0.3178 -1.3832
H 9.6851 1.4717 -2.1658
H 7.5522 3.6659 -2.3577
H 9.2223 3.7682 -1.6925
H 7.8431 4.3225 -0.6804
H 9.0419 1.0438 0.5851
H 8.5377 2.7004 1.2037
H 9.9666 2.3768 0.1395
