58
 
P 0.9983 0.0596 0.0803
C 0.1946 -1.4099 0.7666
C -1.1771 -1.4711 0.9572
C -1.7695 -2.6182 1.4806
C -0.9973 -3.7395 1.8179
C -1.6437 -4.9461 2.4324
C 0.3864 -3.7103 1.6012
C 0.9854 -2.5487 1.0863
C 0.4725 1.2407 1.3555
C 0.8798 1.2459 2.6967
C 0.3006 2.1632 3.5968
C -0.6792 3.0783 3.1668
C -1.3868 3.9808 4.1397
C -1.0227 3.1225 1.8140
C -0.4486 2.2180 0.9222
C 0.5127 0.1893 -1.6415
C -0.8484 0.2099 -2.0039
C -1.2283 0.2791 -3.3413
C -0.2520 0.3486 -4.3410
C -0.6560 0.3368 -5.7881
C 1.1101 0.3995 -3.9766
C 1.4977 0.3145 -2.6235
Ag 3.4583 0.0596 0.0803
N 5.5583 0.0596 0.0803
C 6.1902 0.1693 -1.1177
C 7.5772 0.0362 -1.1975
C 8.3124 -0.2162 -0.0316
C 9.7934 -0.4535 -0.1002
C 7.6415 -0.2817 1.1993
C 6.2490 -0.1384 1.2341
H -1.7878 -0.6231 0.7180
H -2.8378 -2.6203 1.6264
H -2.7258 -4.7689 2.6127
H -1.1651 -5.1462 3.4144
H -1.5304 -5.8376 1.7813
H 0.9919 -4.5808 1.8475
H 2.0635 -2.5586 0.9402
H 1.6184 0.5445 3.0549
H 0.5940 2.1471 4.6374
H -1.0637 3.7821 5.1829
H -2.4812 3.7794 4.0877
H -1.2098 5.0490 3.8999
H -1.7606 3.8328 1.4524
H -0.7621 2.2650 -0.1131
H -1.6326 0.1639 -1.2678
H -2.2850 0.2652 -3.5922
H -1.7574 0.2283 -5.9095
H -0.1816 -0.5424 -6.2739
H -0.3289 1.2617 -6.3037
H 1.8637 0.4832 -4.7471
H 2.5557 0.3383 -2.3095
H 5.6076 0.3210 -2.0168
H 8.0656 0.0961 -2.1622
H 10.1663 -0.3999 -1.1460
H 10.0117 -1.4744 0.2821
H 10.3402 0.2899 0.5139
H 8.1869 -0.4742 2.1149
H 5.7153 -0.2280 2.1709
