82
 
P 1.0706 -0.0667 -0.0238
C 0.5421 -1.2186 -1.4670
C -0.7989 -1.4667 -1.9528
C -2.0252 -1.1314 -1.2392
C -1.0522 -2.1239 -3.1577
C -0.0351 -2.6607 -3.9082
C -0.3686 -3.3768 -5.1866
C 1.2684 -2.5724 -3.4293
C 1.5835 -1.8683 -2.2343
C 3.0557 -1.8705 -1.8529
C 0.4083 -0.8981 1.5880
C 1.2702 -1.7318 2.3708
C 2.5914 -2.1992 1.9628
C 0.9486 -2.1784 3.6521
C -0.2310 -1.8487 4.2576
C -0.4820 -2.3348 5.6610
C -1.1470 -1.0759 3.5532
C -0.8913 -0.5947 2.2353
C -2.0424 0.2955 1.7162
C 0.6785 1.7038 -0.1139
C 0.3213 2.4754 1.0468
C 0.4267 2.0526 2.5045
C -0.1928 3.7579 0.8767
C -0.2896 4.3422 -0.3791
C -0.8235 5.7357 -0.4961
C 0.1308 3.6346 -1.5093
C 0.5957 2.3140 -1.4008
C 0.9814 1.5910 -2.6780
Ag 3.5306 -0.0667 -0.0238
P 5.9906 -0.0667 -0.0238
N 6.9162 1.4485 0.0047
C 6.5144 2.3627 1.0939
C 8.3448 1.3164 -0.1697
O 6.4187 -0.4245 1.5863
C 6.2626 -1.8141 1.7681
O 6.4278 -0.6996 -1.5577
C 6.0238 0.1954 -2.5888
H -1.6201 -0.9030 -0.2945
H -2.6500 -2.0479 -1.0881
H -2.6455 -0.3699 -1.7563
H -2.0751 -2.2442 -3.5060
H -1.4574 -3.3159 -5.4155
H -0.1052 -4.4456 -5.0711
H 0.1777 -2.9356 -6.0470
H 2.0477 -3.0414 -4.0202
H 3.5888 -2.6521 -2.4476
H 3.2601 -2.1723 -0.8554
H 3.5232 -0.9253 -2.0254
H 2.8286 -1.8218 1.0032
H 2.5885 -3.3142 1.9511
H 3.3054 -1.8125 2.7074
H 1.6621 -2.7826 4.2084
H 0.3794 -2.9269 6.0503
H -1.3700 -2.9947 5.6714
H -0.6238 -1.4781 6.3529
H -2.0709 -0.8296 4.0643
H -2.7366 0.5783 2.5314
H -2.7879 -0.1955 1.0780
H -1.7455 1.2318 1.2396
H 0.9624 1.1185 2.6760
H -0.5718 2.0280 3.0002
H 1.0276 2.7815 3.0731
H -0.5157 4.3141 1.7496
H -1.1422 6.1288 0.4947
H -1.7023 5.7591 -1.1731
H -0.0221 6.3928 -0.8871
H 0.0591 4.1043 -2.4834
H 0.9732 2.2558 -3.5654
H 0.2661 0.7853 -2.9194
H 2.0057 1.1702 -2.5818
H 5.4053 2.3965 1.2149
H 6.8293 3.4025 0.8530
H 6.9768 2.0746 2.0607
H 8.5366 0.7870 -1.1239
H 8.7809 0.7763 0.6890
H 8.7854 2.3336 -0.2654
H 6.8900 -2.1587 2.6155
H 6.5333 -2.4500 0.8917
H 5.2304 -2.0140 2.0424
H 6.6946 0.0660 -3.4601
H 6.0412 1.2741 -2.3212
H 5.0324 -0.0376 -2.9960
