29
 
P 1.0562 0.0792 -0.0239
C 0.1193 -1.4079 -0.4874
C 0.5970 -0.0362 1.7294
C 0.6515 1.3870 -1.1464
C -0.6885 1.7796 -1.3161
C -1.0085 2.8204 -2.1879
C 0.0094 3.4658 -2.8936
C 1.3534 3.0832 -2.7076
C 1.6890 2.0396 -1.8148
Ag 3.5162 0.0792 -0.0239
O 5.5662 0.0792 -0.0239
C 6.3385 -0.7808 0.5890
N 7.6390 -0.4761 0.3973
C 7.6150 0.6338 -0.3722
C 6.3043 0.9666 -0.6333
H -0.9750 -1.2930 -0.4365
H 0.4723 -2.2641 0.1305
H 0.4228 -1.6492 -1.5332
H -0.5157 -0.0009 1.7938
H 0.9652 0.8849 2.2315
H 0.9859 -0.9357 2.2352
H -1.4849 1.2897 -0.7663
H -2.0435 3.1256 -2.3146
H -0.2509 4.2686 -3.5757
H 2.1220 3.6079 -3.2564
H 2.7378 1.7068 -1.6015
H 5.9854 -1.6250 1.1653
H 8.4924 1.1675 -0.7126
H 5.9327 1.8046 -1.2082
