55
 
P 0.9803 -0.0703 0.0683
C 0.1095 1.4910 -0.2976
C 0.8194 2.7507 -0.2984
C 2.3223 2.9274 -0.1822
C 0.0933 3.9505 -0.3904
C -1.2911 3.9325 -0.5027
C -1.9704 2.7159 -0.5491
C -1.2765 1.5069 -0.4519
C 0.7753 -1.0327 -1.5345
C 1.3173 -0.6659 -2.7969
C 2.1658 0.5378 -2.9614
C 1.1268 -1.4831 -3.9390
C 0.4487 -2.6904 -3.8566
C -0.0486 -3.1058 -2.6285
C 0.1024 -2.2904 -1.4847
C 0.5298 -0.6569 1.7801
C 1.3224 -1.5369 2.6082
C 2.7376 -1.9823 2.3481
C 0.7684 -2.0638 3.7984
C -0.5133 -1.7266 4.2106
C -1.2592 -0.8338 3.4601
C -0.7504 -0.3153 2.2686
Ag 3.4403 -0.0703 0.0683
N 5.5403 -0.0703 0.0683
C 6.1773 0.2876 -1.0780
C 7.5705 0.2160 -1.1589
Cl 8.3961 0.6511 -2.6442
C 8.2947 -0.2265 -0.0490
C 7.6211 -0.5774 1.1240
C 6.2260 -0.4897 1.1648
H 2.8871 1.9869 -0.1850
H 2.5853 3.4941 0.7387
H 2.6921 3.5261 -1.0475
H 0.6031 4.9112 -0.3617
H -1.8365 4.8667 -0.5539
H -3.0457 2.7092 -0.6357
H -1.8241 0.5774 -0.4553
H 2.8350 0.6468 -2.0714
H 1.5130 1.3906 -3.2388
H 2.8487 0.3750 -3.8242
H 1.5244 -1.1957 -4.9069
H 0.3337 -3.3097 -4.7449
H -0.5458 -4.0706 -2.5774
H -0.2981 -2.6717 -0.5552
H 3.1923 -1.5614 1.4568
H 2.7796 -3.0912 2.2787
H 3.3649 -1.6913 3.2253
H 1.3314 -2.7561 4.4178
H -0.9267 -2.1540 5.1175
H -2.2525 -0.5588 3.7907
H -1.3998 0.3417 1.7335
H 5.5934 0.6024 -1.9333
H 9.3735 -0.3046 -0.0973
H 8.1740 -0.9274 1.9859
H 5.6883 -0.7773 2.0581
