78
 
P 0.9406 -0.0588 -0.0549
C 0.2045 -1.6818 -0.4430
C -1.1697 -1.9300 -0.4405
C -1.6512 -3.2350 -0.6404
C -0.7671 -4.2998 -0.8564
Cl -1.3730 -5.9429 -1.0026
C 0.6026 -4.0546 -0.9342
C 1.0846 -2.7542 -0.7374
C 0.3435 -0.0914 1.6700
C 0.7415 -1.0157 2.6506
C 0.1467 -0.9849 3.9289
C -0.8455 -0.0430 4.2335
Cl -1.6386 -0.0495 5.8024
C -1.2179 0.8997 3.2784
C -0.6221 0.8818 2.0146
C 0.5802 1.2554 -1.2596
C -0.7460 1.6414 -1.5875
C -0.9869 2.6857 -2.4949
C 0.0855 3.3608 -3.0796
Cl -0.2315 4.6519 -4.2380
C 1.4040 3.0041 -2.7404
C 1.6618 1.9492 -1.8269
Ag 3.4006 -0.0588 -0.0549
P 5.8606 -0.0588 -0.0549
C 6.6468 0.1462 1.5732
C 6.2043 -0.6773 2.6240
C 6.5950 -0.4327 3.9426
C 7.4474 0.6358 4.2426
C 7.8082 0.9354 5.6729
C 7.9285 1.4423 3.1969
C 7.5212 1.2089 1.8694
C 6.3422 -1.7884 -0.2752
C 5.3733 -2.7653 -0.4978
C 5.7357 -4.1088 -0.6175
C 7.0816 -4.4928 -0.5346
C 7.4521 -5.9477 -0.5155
C 8.0720 -3.5045 -0.4276
C 7.7045 -2.1569 -0.3011
C 6.2743 1.2838 -1.2173
C 5.8649 2.6137 -1.0203
C 6.1081 3.5836 -2.0081
C 6.7707 3.2432 -3.1980
C 6.9367 4.2465 -4.3055
C 7.2382 1.9356 -3.3696
C 6.9852 0.9639 -2.3927
H -1.8608 -1.1255 -0.2546
H -2.7133 -3.4251 -0.6015
H 1.2912 -4.8752 -1.1220
H 2.1519 -2.6034 -0.7936
H 1.4941 -1.7585 2.4337
H 0.4397 -1.7024 4.6838
H -1.9812 1.6369 3.5084
H -0.9478 1.6222 1.2951
H -1.6057 1.1535 -1.1466
H -2.0063 2.9757 -2.7464
H 2.2172 3.5556 -3.1937
H 2.6927 1.6449 -1.5263
H 5.5060 -1.4824 2.4365
H 6.2056 -1.0606 4.7351
H 7.2744 0.2608 6.3788
H 7.5107 1.9770 5.9243
H 8.8990 0.8177 5.8292
H 8.5813 2.2787 3.4204
H 7.8508 1.8890 1.0959
H 4.3379 -2.4857 -0.5667
H 4.9618 -4.8523 -0.7518
H 6.5456 -6.5914 -0.5019
H 8.0056 -6.1513 0.4285
H 8.0863 -6.2257 -1.3795
H 9.1215 -3.7816 -0.4068
H 8.4833 -1.4087 -0.2015
H 5.3291 2.9039 -0.1284
H 5.7565 4.5971 -1.8601
H 6.4299 5.2050 -4.0633
H 6.4522 3.8384 -5.2202
H 8.0066 4.4442 -4.5227
H 7.7635 1.6618 -4.2794
H 7.3223 -0.0476 -2.5797
