78
 
P 1.0857 -0.0355 0.0374
C 0.3502 0.5097 -1.5237
C -1.0095 0.4930 -1.8507
C -1.4334 1.0045 -3.0916
C -0.5103 1.5435 -3.9988
F -0.9261 2.0372 -5.1925
C 0.8416 1.5820 -3.6695
C 1.2647 1.0674 -2.4437
C 0.5853 -1.7657 0.0955
C 0.9887 -2.6961 -0.8519
C 0.5286 -4.0177 -0.7718
C -0.3274 -4.4182 0.2631
F -0.7887 -5.6931 0.3124
C -0.7059 -3.5035 1.2449
C -0.2505 -2.1822 1.1666
C 0.5511 1.2155 1.2174
C -0.8141 1.3974 1.4885
C -1.2340 2.3863 2.3852
C -0.2947 3.1909 3.0250
F -0.6879 4.1681 3.8784
C 1.0574 2.9952 2.7830
C 1.4807 2.0052 1.8814
Ag 3.5457 -0.0355 0.0374
P 6.0057 -0.0355 0.0374
C 6.7510 -1.6593 0.2332
C 8.1172 -1.9413 0.3014
C 8.5495 -3.2697 0.4708
C 10.0068 -3.5960 0.4858
C 7.6111 -4.3047 0.6130
C 6.2491 -4.0193 0.5940
C 5.8233 -2.7070 0.4011
C 6.5048 0.4574 -1.6297
C 7.8701 0.6576 -1.9148
C 8.2801 1.2751 -3.1054
C 9.7361 1.5525 -3.3633
C 7.3136 1.6862 -4.0302
C 5.9556 1.4819 -3.7622
C 5.5523 0.8750 -2.5637
C 6.4421 1.0719 1.3809
C 5.4115 1.6887 2.0692
C 5.7078 2.7105 3.0092
C 4.6316 3.4658 3.7051
C 7.0385 3.0657 3.2664
C 8.0717 2.4170 2.5953
C 7.7778 1.4296 1.6473
H -1.7356 0.0957 -1.1622
H -2.4814 0.9917 -3.3519
H 1.5612 2.0161 -4.3580
H 2.3162 1.1294 -2.2031
H 1.6484 -2.3898 -1.6472
H 0.8312 -4.7312 -1.5212
H -1.3576 -3.8181 2.0570
H -0.5671 -1.4939 1.9456
H -1.5555 0.7781 1.0099
H -2.2855 2.5361 2.5802
H 1.7411 3.6401 3.3021
H 2.5089 1.8438 1.6678
H 8.8452 -1.1563 0.2266
H 10.6251 -2.6777 0.4060
H 10.2255 -4.2457 -0.3870
H 10.2732 -4.1300 1.4214
H 7.9339 -5.3302 0.7482
H 5.5227 -4.8142 0.7237
H 4.7556 -2.5075 0.3928
H 8.6252 0.4046 -1.1943
H 10.3813 1.1561 -2.5496
H 9.8973 2.6512 -3.4174
H 10.0545 1.0926 -4.3212
H 7.6133 2.1861 -4.9444
H 5.2152 1.8331 -4.4690
H 4.5035 0.7886 -2.3391
H 4.4067 1.3612 1.7838
H 3.6817 3.0366 3.4002
H 4.6681 4.5386 3.4065
H 4.7200 3.3894 4.8081
H 7.2716 3.8564 3.9745
H 9.0975 2.7075 2.7888
H 8.5953 0.9827 1.1053
