71
 
P 1.0521 -0.0080 0.0850
C 0.3143 1.6709 -0.2766
C -1.2155 1.7547 -0.3170
C 0.8329 2.6132 0.8481
C 0.8466 2.1861 -1.6273
C 0.6669 -0.9372 -1.4489
C 1.7085 -1.4855 -2.2118
C 1.4339 -2.2437 -3.3614
C 0.1160 -2.4660 -3.7671
C -0.9346 -1.9743 -2.9959
C -0.6660 -1.2355 -1.8343
C 0.5386 -0.5552 1.7447
C -0.8312 -0.6904 2.0379
C -1.2645 -1.0708 3.3106
C -0.3336 -1.3579 4.3064
C 1.0345 -1.2841 4.0192
C 1.4732 -0.8835 2.7403
Ag 3.5121 -0.0080 0.0850
P 5.9721 -0.0080 0.0850
C 6.6720 -1.6009 -0.4435
C 7.4759 -1.7712 -1.5877
C 7.7521 -3.0611 -2.0701
C 7.2365 -4.1861 -1.4211
C 6.4668 -4.0297 -0.2694
C 6.1863 -2.7476 0.2156
C 6.2917 1.1849 -1.2456
C 5.1957 1.7954 -1.8712
C 5.4234 2.8254 -2.8166
C 6.7299 3.2275 -3.1423
C 7.8195 2.6158 -2.5218
C 7.6055 1.6066 -1.5702
C 6.4281 0.1481 1.8380
C 5.4218 0.2688 2.7974
C 5.7526 0.5924 4.1203
C 7.0850 0.7974 4.4800
C 8.0789 0.6564 3.5085
O 9.2460 0.8498 3.8068
N 7.7354 0.3340 2.2105
H -1.6876 1.5010 0.6461
H -1.6187 1.1436 -1.1341
H -1.5238 2.7969 -0.5445
H 0.4784 2.2854 1.8510
H 0.4932 3.6615 0.7028
H 1.9468 2.6301 0.8887
H 0.4745 1.5477 -2.4539
H 1.9553 2.1994 -1.6626
H 0.4884 3.2227 -1.8142
H 2.7350 -1.3463 -1.9056
H 2.2441 -2.6659 -3.9401
H -0.0919 -3.0379 -4.6655
H -1.9580 -2.1793 -3.2956
H -1.5163 -0.9291 -1.2472
H -1.5791 -0.5069 1.2868
H -2.3252 -1.1445 3.5223
H -0.6775 -1.6502 5.2932
H 1.7458 -1.5375 4.7957
H 2.5299 -0.8380 2.5170
H 7.8484 -0.9326 -2.1502
H 8.3359 -3.1927 -2.9724
H 7.4179 -5.1784 -1.8190
H 6.0555 -4.9020 0.2254
H 5.5358 -2.6536 1.0764
H 4.1780 1.4548 -1.5826
H 4.5961 3.3291 -3.2987
H 6.9031 4.0189 -3.8691
H 8.8280 2.9404 -2.7690
H 8.4707 1.1762 -1.0805
H 4.3923 0.1587 2.4988
H 4.9761 0.7167 4.8643
H 7.3376 1.0794 5.4991
H 8.4952 0.2831 1.4944
