68
 
P 1.0831 -0.0233 0.0505
C 0.1198 -0.3130 1.7491
C 0.3766 0.7061 2.9179
C -0.3324 2.0479 2.6632
C -1.8511 1.8652 2.4701
C -2.1755 0.7473 1.4617
C -1.4227 -0.5335 1.8021
C 0.8790 1.6028 -0.9573
C 1.6341 1.4396 -2.2770
C 0.8086 0.5473 -3.2428
C -0.5639 1.1443 -3.5884
C -1.3620 1.4810 -2.3223
C -0.5017 2.2883 -1.3354
C 0.6819 -1.6289 -0.7877
C 1.6113 -2.6118 -1.2746
C 3.0994 -2.5529 -1.2081
C 1.1381 -3.7519 -1.9407
C -0.2162 -3.9488 -2.1596
C -1.1273 -3.0047 -1.7193
C -0.6823 -1.8694 -1.0527
Ag 3.5431 -0.0233 0.0505
P 6.0031 -0.0233 0.0505
O 6.8563 -1.4004 0.6550
C 8.2521 -1.3194 0.5439
C 8.6844 0.0428 0.0416
C 10.2169 0.1068 0.0056
C 8.0696 0.2097 -1.3982
O 6.6658 -0.0274 -1.5088
O 6.6489 0.8588 1.3466
C 8.0429 1.0820 1.0426
H 0.5546 -1.2672 2.1193
H 1.4538 0.8442 3.1395
H -0.0545 0.2922 3.8708
H 0.1113 2.4875 1.7567
H -0.1742 2.7504 3.5165
H -2.3020 2.8271 2.1364
H -2.3232 1.6032 3.4450
H -1.8798 1.0077 0.4536
H -3.2720 0.5780 1.4501
H -1.7527 -1.3934 1.2137
H -1.7302 -0.8283 2.8341
H 1.3907 2.3716 -0.3372
H 2.6491 1.0112 -2.0380
H 1.7665 2.4391 -2.7604
H 0.6088 -0.4125 -2.7916
H 1.3733 0.3371 -4.1671
H -1.1486 0.4158 -4.1975
H -0.4150 2.0591 -4.1984
H -1.7030 0.5674 -1.8353
H -2.2861 2.0351 -2.6136
H -1.0876 2.6309 -0.4643
H -0.2813 3.2506 -1.8570
H 3.4511 -1.6938 -0.7556
H 3.5293 -2.5215 -2.2308
H 3.5182 -3.3915 -0.6200
H 1.8382 -4.4892 -2.3147
H -0.5542 -4.8269 -2.6898
H -2.1844 -3.1416 -1.9058
H -1.4334 -1.1674 -0.7718
H 8.6039 -2.1279 -0.1334
H 8.6783 -1.5022 1.5549
H 10.6126 -0.6962 -0.6576
H 10.6261 -0.0726 1.0241
H 10.5707 1.0879 -0.3639
H 8.5604 -0.5310 -2.0689
H 8.3042 1.2202 -1.7930
H 8.5835 0.9859 2.0082
H 8.2138 2.1154 0.6683
