55
 
P 0.9990 0.0581 0.0814
C 0.0239 -0.0113 1.6606
C -1.3723 0.1394 1.7484
C -2.0414 -0.0495 2.9770
C -1.3376 -0.3968 4.1334
C 0.0453 -0.5399 4.0768
C 0.7226 -0.3449 2.8577
C 0.5643 1.7586 -0.4740
C 0.9081 2.9177 0.2330
C 0.5066 4.1849 -0.2320
C -0.2263 4.3177 -1.4150
C -0.5478 3.1831 -2.1559
C -0.1586 1.9126 -1.6928
C 0.5885 -1.5400 -0.7951
C 1.0937 -1.8729 -2.0978
C 1.9532 -0.9685 -2.9294
C 0.7675 -3.1102 -2.6977
C -0.0823 -4.0095 -2.0683
C -0.6225 -3.6874 -0.8307
C -0.2875 -2.4807 -0.1973
Ag 3.4590 0.0581 0.0814
N 5.5590 0.0581 0.0814
C 6.1924 -0.9566 -0.5365
C 5.3449 -2.0671 -1.0593
C 7.5888 -0.9155 -0.6753
C 8.2883 0.1936 -0.1782
C 7.6010 1.2130 0.4876
C 6.2113 1.1159 0.6269
C 5.4180 2.1442 1.3725
H -1.9500 0.3807 0.8732
H -3.1164 0.0535 3.0378
H -1.8646 -0.5628 5.0713
H 0.5828 -0.8206 4.9807
H 1.7956 -0.4968 2.8598
H 1.4773 2.8474 1.1437
H 0.7593 5.0735 0.3283
H -0.5404 5.3004 -1.7579
H -1.1051 3.2979 -3.0838
H -0.4356 1.0561 -2.2981
H 2.1346 0.0094 -2.4536
H 1.4291 -0.7872 -3.8966
H 2.9220 -1.4634 -3.1529
H 1.1618 -3.3784 -3.6742
H -0.3341 -4.9507 -2.5492
H -1.3063 -4.3834 -0.3604
H -0.7429 -2.3002 0.7602
H 4.2557 -1.8267 -0.8672
H 5.6215 -3.0064 -0.5342
H 5.5197 -2.1904 -2.1475
H 8.1248 -1.7091 -1.1791
H 9.3620 0.2641 -0.2997
H 8.1418 2.0636 0.8852
H 6.0714 2.9572 1.7588
H 4.9409 1.6507 2.2468
H 4.6147 2.5634 0.7327
