24
 
P 1.2750 0.0000 0.0000
N 0.3607 1.4874 -0.3188
C -1.0805 1.3646 -0.3155
C -1.4697 -0.0643 0.0061
C -3.0013 -0.1430 0.0230
C -0.8706 -0.9881 -1.1347
N 0.6018 -0.8819 -1.3463
N 0.5964 -0.2383 1.5877
C -0.8755 -0.4222 1.4329
Ag 3.7350 0.0003 -0.0005
C 5.8850 0.0006 -0.0009
O 7.1031 0.0008 -0.0011
H 0.6985 1.9040 -1.2179
H -1.4826 1.6776 -1.3071
H -1.4800 2.0751 0.4415
H -3.4108 0.1687 -0.9640
H -3.4090 0.5537 0.7898
H -3.3410 -1.1711 0.2495
H -1.3718 -0.7448 -2.1000
H -1.1209 -2.0432 -0.9030
H 0.8279 -0.3641 -2.2265
H 0.8245 0.5944 2.1771
H -1.3793 0.2031 2.2049
H -1.1280 -1.4777 1.6631
