40
 
P 0.9313 0.0538 0.0489
O 0.3511 1.5613 0.6052
C 0.8454 1.9301 1.8514
C 0.3973 3.3753 2.0813
O 0.5983 -0.6944 -1.4541
C -0.8016 -0.5989 -1.6640
C -1.1972 -1.2016 -2.9978
C 0.0463 -1.1131 1.1131
C -1.1723 -0.8403 1.7262
C -1.8311 -1.8493 2.4399
C -1.2719 -3.1292 2.5538
C -0.0422 -3.4076 1.9598
C 0.6135 -2.4065 1.2382
Ag 3.3913 0.0538 0.0489
N 5.4913 0.0538 0.0489
C 6.1308 0.3336 1.2158
C 7.5236 0.4226 1.2507
C 8.2461 0.2453 0.0695
C 7.5714 -0.0411 -1.1205
C 6.1762 -0.1487 -1.1083
H 1.9563 1.8815 1.8941
H 0.3712 1.2997 2.6272
H 0.8751 4.0597 1.3448
H 0.6612 3.7040 3.1053
H -0.7065 3.4603 1.9537
H -1.1360 0.4629 -1.6500
H -1.3701 -1.1924 -0.9173
H -0.6873 -0.6725 -3.8263
H -2.2984 -1.0983 -3.1216
H -0.9425 -2.2826 -3.0200
H -1.6211 0.1330 1.6175
H -2.7878 -1.6415 2.8910
H -1.7946 -3.9078 3.0949
H 0.3909 -4.4009 2.0456
H 1.5622 -2.6544 0.7680
H 5.5522 0.4879 2.1173
H 8.0346 0.6423 2.1794
H 9.3247 0.3367 0.0765
H 8.1233 -0.1635 -2.0432
H 5.6366 -0.3436 -2.0254
