30
 
P 1.4869 -0.0064 0.0112
N 0.6445 1.4721 -0.3084
C -0.7893 1.3992 -0.3112
C -1.2744 -0.0054 -0.0006
C -2.7998 -0.0051 0.0007
C -0.7277 -0.9676 -1.0891
N 0.7570 -1.0084 -1.2042
N 0.7517 -0.4229 1.5246
C -0.7312 -0.4308 1.3930
Ag 3.7961 -0.0264 -0.0038
O 5.7671 -0.0412 -0.0141
C 6.5790 -0.0352 -1.0525
N 7.8698 -0.0357 -0.6540
C 7.8029 -0.0479 0.6903
C 6.4928 -0.0533 1.0697
H 1.0492 1.7461 -1.2360
H -1.1502 1.7369 -1.2992
H -1.1437 2.1118 0.4575
H -3.1768 0.3166 -0.9900
H -3.1758 0.6974 0.7711
H -3.1759 -1.0194 0.2208
H -1.1407 -0.6614 -2.0671
H -1.1151 -1.9839 -0.8625
H 1.1040 -0.6489 -2.0978
H 1.0990 0.2783 2.1849
H -1.1445 0.2517 2.1557
H -1.1171 -1.4509 1.6036
H 6.2908 -0.0213 -2.0913
H 8.6378 -0.0531 1.3679
H 6.1466 -0.0575 2.0824
