46
 
P 1.2750 0.0000 -0.0000
O 0.4221 -0.8354 -1.2497
C -0.9728 -0.7985 -1.1364
C -1.4049 0.0362 0.0527
C -2.9372 0.0768 0.1134
C -0.7772 -0.6504 1.3247
O 0.6236 -0.9496 1.2426
O 0.6298 1.5111 -0.4151
C -0.7817 1.4694 -0.1589
Ag 3.7350 0.0003 -0.0005
C 5.8850 0.0006 -0.0009
N 6.6345 1.0951 -0.0001
C 6.0923 2.4521 0.0096
C 4.5186 2.4118 0.0125
C 6.6558 3.2123 1.2223
C 7.9135 0.6547 -0.0117
C 7.8876 -0.7359 -0.0017
N 6.5945 -1.1258 0.0057
C 6.0111 -2.4726 0.0272
C 4.4513 -2.4057 0.0444
C 6.5036 -3.2783 -1.1810
H -1.3431 -1.8438 -1.0425
H -1.3773 -0.3749 -2.0819
H -3.3422 -0.9558 0.2073
H -3.3439 0.5094 -0.8284
H -3.2840 0.6836 0.9710
H -1.2934 -1.6250 1.4692
H -0.9782 -0.0274 2.2209
H -1.2769 1.9237 -1.0461
H -1.0140 2.1052 0.7196
H 6.4419 2.9761 -0.9076
H 4.1035 1.8817 0.8815
H 4.1192 1.9014 -0.8776
H 4.1441 3.4551 0.0152
H 6.3537 2.7248 2.1727
H 6.3112 4.2668 1.2213
H 7.7695 3.2297 1.1847
H 8.7950 1.2828 -0.0188
H 8.7414 -1.4015 -0.0004
H 6.3565 -2.9851 0.9520
H 4.0526 -1.9172 -0.8613
H 4.0829 -1.8452 0.9188
H 4.0315 -3.4285 0.1058
H 6.1782 -2.8019 -2.1299
H 6.1069 -4.3146 -1.1378
H 7.6136 -3.3396 -1.1797
