53
 
P 1.2750 -0.0000 -0.0000
O 0.4311 1.5018 -0.1345
C -0.9646 1.3922 -0.1399
C -1.4028 -0.0520 0.0052
C -2.9341 -0.1187 0.0112
C -0.7789 -0.8275 -1.2174
O 0.6239 -0.6220 -1.4347
O 0.6271 -0.3520 1.5253
C -0.7810 -0.5710 1.3584
Ag 3.7350 0.0003 -0.0005
P 6.1950 0.0007 -0.0009
C 6.8446 -1.4803 -0.8707
C 7.6343 -1.4495 -2.0406
C 7.8768 -2.6360 -2.7667
C 7.3389 -3.8547 -2.3423
C 6.5767 -3.9026 -1.1782
C 6.3326 -2.7293 -0.4500
C 6.4845 1.5205 -0.9763
C 5.3857 2.2762 -1.4255
C 5.5944 3.5249 -2.0533
C 6.8909 4.0174 -2.2468
C 7.9867 3.2636 -1.8256
C 7.7894 2.0240 -1.1915
C 6.7294 -0.1132 1.7413
C 5.7808 -0.1892 2.7688
C 6.2036 -0.1665 4.1080
C 7.5607 -0.0691 4.4189
C 8.4898 -0.0033 3.3799
O 9.6788 0.0913 3.6381
N 8.0607 -0.0271 2.0679
H -1.3403 1.8257 -1.0931
H -1.3582 2.0089 0.6980
H -3.3359 0.3093 -0.9345
H -3.3364 0.4909 0.8513
H -3.2842 -1.1626 0.1177
H -1.2902 -0.4705 -2.1385
H -0.9878 -1.9127 -1.1160
H -1.2812 -0.0267 2.1897
H -1.0064 -1.6508 1.4791
H 8.0249 -0.5235 -2.4311
H 8.4539 -2.6166 -3.6835
H 7.4964 -4.7604 -2.9222
H 6.1464 -4.8471 -0.8607
H 5.6889 -2.7965 0.4174
H 4.3719 1.8936 -1.2605
H 4.7566 4.1288 -2.3806
H 7.0492 4.9858 -2.7172
H 8.9880 3.6570 -1.9754
H 8.6602 1.4822 -0.8487
H 4.7243 -0.2414 2.5286
H 5.4812 -0.2086 4.9130
H 7.8845 -0.0371 5.4569
H 8.7799 0.0484 1.3131
