78
 
P 0.9886 0.0775 -0.0621
C 0.2026 0.8089 1.4682
C -1.3205 0.8625 1.4201
C 0.6288 -0.0242 2.7105
C 0.7746 2.2189 1.6827
C 0.6068 1.3634 -1.3051
C 1.5346 2.3568 -1.6325
C 1.2587 3.2727 -2.6655
C 0.0742 3.1783 -3.4061
C -0.8426 2.1716 -3.1164
C -0.5849 1.2759 -2.0716
C 0.4707 -1.6722 -0.1498
C -0.3295 -2.1065 -1.2319
C -0.8553 -3.4022 -1.2649
C -0.5859 -4.2867 -0.2233
C 0.2565 -3.8935 0.8178
C 0.8015 -2.6051 0.8418
Ag 3.4486 0.0775 -0.0621
C 5.5986 0.0775 -0.0621
N 6.4159 1.1632 -0.1415
C 5.8330 2.5016 -0.1281
C 6.1472 3.7635 -1.0072
C 4.9070 4.7007 -0.7738
C 4.7163 5.0379 0.7241
C 4.6653 3.7795 1.5889
C 5.8759 2.9306 1.3338
C 7.6862 0.6930 -0.0496
C 7.6343 -0.7061 -0.0001
N 6.3331 -1.0654 -0.0125
C 5.6064 -2.3071 -0.2362
C 5.5074 -2.2386 -1.7997
C 6.5466 -3.1924 -2.4092
C 6.1093 -4.6131 -2.1014
C 6.1411 -4.8428 -0.5882
C 5.3224 -3.7992 0.1611
H -1.7489 -0.1616 1.4207
H -1.6589 1.4181 0.5276
H -1.6941 1.3886 2.3284
H 0.1712 -1.0281 2.7098
H 0.2795 0.4280 3.6610
H 1.7391 -0.1262 2.7718
H 0.5155 2.8934 0.8465
H 1.8782 2.1657 1.7813
H 0.3785 2.6674 2.6189
H 2.4663 2.4065 -1.0848
H 1.9682 4.0504 -2.9089
H -0.1308 3.8757 -4.2120
H -1.7497 2.0818 -3.7086
H -1.3243 0.5105 -1.8939
H -0.5756 -1.4588 -2.0548
H -1.4889 -3.7147 -2.0882
H -1.0198 -5.2787 -0.2277
H 0.4779 -4.5835 1.6190
H 1.4565 -2.3413 1.6535
H 4.8237 2.2562 -0.5336
H 6.2206 3.5620 -2.0988
H 7.0774 4.3073 -0.7036
H 3.9915 4.1688 -1.1185
H 4.9513 5.6415 -1.3575
H 3.7693 5.5950 0.8873
H 5.5680 5.6617 1.0617
H 3.7833 3.1580 1.3274
H 4.6238 4.0315 2.6660
H 5.8146 2.0495 2.0059
H 6.8342 3.4569 1.5638
H 8.5807 1.3041 -0.0382
H 8.4710 -1.3925 -0.0005
H 4.9468 -2.0487 0.6277
H 5.7742 -1.2392 -2.2311
H 4.4853 -2.4463 -2.1589
H 7.5666 -3.0045 -1.9915
H 6.5991 -3.0519 -3.5082
H 6.7802 -5.3412 -2.5997
H 5.0797 -4.7510 -2.5076
H 7.1790 -4.7860 -0.2147
H 5.7245 -5.8538 -0.3767
H 5.3127 -4.0466 1.2466
H 4.2556 -3.9577 -0.1699
