41
 
P 0.9560 0.0819 -0.0368
C -0.0117 -1.2865 -0.7337
C 0.4837 -0.0048 1.7116
C 0.4843 1.4449 -1.1359
Ag 3.4160 0.0819 -0.0368
C 5.5660 0.0819 -0.0368
N 6.3346 1.1814 -0.0400
C 5.8568 2.5624 -0.0341
C 4.9793 2.8027 -1.2667
C 5.0778 2.8365 1.2578
C 7.6102 0.7401 -0.0527
C 7.5881 -0.6448 -0.0510
N 6.3002 -1.0436 -0.0408
C 5.7858 -2.4156 -0.0235
C 4.9408 -2.6301 1.2366
C 4.9593 -2.6955 -1.2846
H -1.1028 -1.1535 -0.6662
H 0.3056 -2.2177 -0.2102
H 0.3059 -1.4110 -1.7945
H -0.6269 0.0249 1.7740
H 0.8784 0.8927 2.2319
H 0.8621 -0.9269 2.1908
H -0.6261 1.5133 -1.1493
H 0.8635 1.2897 -2.1632
H 0.8790 2.3937 -0.7163
H 6.7236 3.2593 -0.0710
H 4.1056 2.1140 -1.2677
H 5.5731 2.6177 -2.1869
H 4.6096 3.8487 -1.2836
H 4.2040 2.1538 1.3494
H 4.7184 3.8871 1.2754
H 5.7421 2.6803 2.1349
H 8.4897 1.3705 -0.0589
H 8.4442 -1.3073 -0.0562
H 6.6362 -3.1332 -0.0023
H 4.0745 -1.9326 1.2535
H 5.5619 -2.4443 2.1383
H 4.5613 -3.6728 1.2765
H 4.0988 -1.9951 -1.3626
H 4.5722 -3.7373 -1.2635
H 5.5970 -2.5816 -2.1868
