40
 
P 0.9258 0.0610 -0.0277
O 0.4566 -1.5620 -0.2026
C 1.0252 -2.1576 -1.3242
C 2.5707 -2.0191 -1.3980
O 0.5108 1.3032 1.0668
C -0.8383 1.0731 1.4366
C -1.2060 1.8398 2.6984
C 0.1677 0.7820 -1.5006
C -1.0975 0.4505 -1.9989
C -1.5060 0.9623 -3.2426
C -0.6610 1.8045 -3.9789
C 0.5833 2.1643 -3.4647
C 0.9938 1.6547 -2.2343
Ag 3.3858 0.0610 -0.0277
O 5.4358 0.0610 -0.0277
C 5.8521 -0.2059 -1.3295
C 5.3017 0.9225 -2.2186
C 7.3834 -0.1335 -1.3590
H 0.5048 -1.8029 -2.2422
H 0.7332 -3.2310 -1.2461
H 2.8777 -1.0229 -1.6985
H 2.8761 -2.7047 -2.2120
H 3.0912 -2.2241 -0.4453
H -1.0430 -0.0015 1.6637
H -1.5097 1.4278 0.6257
H -0.6290 1.4648 3.5698
H -2.2887 1.6877 2.9051
H -1.0206 2.9247 2.5623
H -1.7431 -0.2214 -1.4515
H -2.4683 0.6902 -3.6515
H -0.9633 2.1750 -4.9506
H 1.2403 2.8194 -4.0266
H 1.9740 1.9288 -1.8604
H 5.4982 -1.1981 -1.6759
H 5.6367 1.9173 -1.8404
H 4.1939 0.9214 -2.2116
H 5.6498 0.8197 -3.2673
H 7.7331 0.8555 -0.9805
H 7.7656 -0.2594 -2.3944
H 7.8178 -0.9227 -0.7132
