58
 
P 0.9292 -0.0670 0.0224
C 0.2832 1.1090 -1.3967
C 1.0815 2.4524 -1.5350
C 2.4978 2.2770 -2.1409
C 2.4490 1.5829 -3.5227
C 1.7263 0.2570 -3.3962
C 0.2874 0.5023 -2.8475
C 0.1339 -1.7979 -0.2481
C 0.8732 -2.4107 -1.4263
C 2.3022 -2.7135 -0.9860
C 2.3394 -3.8883 -0.0514
C 1.4356 -3.6094 1.1705
C 0.0679 -3.0014 0.7806
C 0.5947 1.1111 1.3968
C -0.7031 1.6314 1.7384
C -2.0112 1.2611 1.0852
C -0.8232 2.5634 2.7862
C 0.2803 2.9516 3.5331
C 1.5210 2.3775 3.2796
C 1.6783 1.4653 2.2270
Ag 3.3892 -0.0670 0.0224
O 5.4392 -0.0670 0.0224
C 6.2119 -1.1219 0.0472
N 7.5119 -0.7616 0.0106
C 7.4863 0.5883 -0.0360
C 6.1754 1.0093 -0.0261
H -0.7704 1.3691 -1.2161
H 1.1534 2.9801 -0.5660
H 0.5291 3.1294 -2.2324
H 3.1193 1.6948 -1.4122
H 2.9688 3.2755 -2.2942
H 3.4790 1.4070 -3.9092
H 1.9112 2.2030 -4.2771
H 2.3624 -0.3648 -2.7345
H 1.6772 -0.2535 -4.3868
H -0.3782 -0.3816 -2.8926
H -0.2061 1.1830 -3.5799
H -0.9325 -1.5700 -0.4692
H 0.9364 -1.7172 -2.1997
H 0.3540 -3.2689 -1.8910
H 2.6174 -1.9110 -0.3968
H 3.0050 -2.7789 -1.8338
H 3.3859 -4.0408 0.2974
H 2.0203 -4.7661 -0.6479
H 1.9242 -2.8768 1.8397
H 1.3147 -4.5657 1.7334
H -0.5325 -2.7904 1.6896
H -0.4860 -3.8215 0.2532
H -1.9378 0.4722 0.3196
H -2.4641 2.1755 0.6468
H -2.7148 0.8763 1.8599
H -1.7899 2.9898 3.0354
H 0.1619 3.6815 4.3258
H 2.3633 2.6506 3.9024
H 2.6554 1.0275 2.0735
H 5.8592 -2.1438 0.0790
H 8.3625 1.2215 -0.0796
H 5.8018 2.0244 -0.0589
