96
 
P 1.0599 -0.0288 0.0747
C 0.0517 1.5361 0.4672
C 0.2422 2.1825 1.8884
C 1.6646 2.7461 2.1478
C 2.0918 3.7568 1.0729
C 1.9081 3.1439 -0.3148
C 0.4325 2.6794 -0.4773
C 0.7137 -0.2163 -1.8617
C 1.2324 0.7261 -2.9876
C 2.7304 0.7130 -3.0078
C 3.1896 -0.6592 -3.4711
C 2.6733 -1.7484 -2.5187
C 1.1430 -1.6471 -2.3494
C 0.4768 -1.3166 1.3280
C -0.6790 -2.1340 1.0395
C -1.5407 -2.0611 -0.1650
C -1.1108 -3.1377 1.8959
C -0.4515 -3.4169 3.0640
C -0.9769 -4.5295 3.9222
C 0.6870 -2.6775 3.3928
C 1.1723 -1.6428 2.5425
C 2.4323 -0.9505 2.9699
Ag 3.5199 -0.0288 0.0747
P 5.9799 -0.0288 0.0747
C 6.5715 1.0580 1.5154
C 7.8372 1.0543 2.1638
C 8.2249 2.1264 2.9983
C 7.3679 3.2056 3.2216
C 6.0920 3.1845 2.6796
C 5.6853 2.1040 1.8914
C 6.3968 -1.7388 0.7725
C 7.1326 -2.7085 -0.0039
C 7.4336 -4.0001 0.4999
C 7.0227 -4.3637 1.7763
C 6.3107 -3.4452 2.5481
C 5.9996 -2.1563 2.0548
C 6.5477 0.6685 -1.6435
C 5.9955 2.0497 -2.0611
C 6.3861 3.0686 -1.0304
C 7.9141 3.1054 -0.7738
C 8.6696 1.7406 -0.8388
C 8.0900 0.7766 -1.8527
H -1.0198 1.2819 0.3486
H -0.0497 1.4939 2.7034
H -0.4447 3.0642 1.9531
H 2.3864 1.9178 2.1495
H 1.7060 3.2493 3.1421
H 3.1554 4.0544 1.2281
H 1.4739 4.6773 1.1478
H 2.6267 2.3051 -0.4124
H 2.1673 3.8936 -1.0952
H 0.1838 2.3309 -1.4293
H -0.2465 3.5483 -0.3781
H -0.3683 -0.1245 -2.0427
H 0.8921 1.7556 -3.0830
H 0.8318 0.3575 -3.9649
H 3.0908 0.9311 -1.9958
H 3.0830 1.4948 -3.7084
H 4.2922 -0.6759 -3.5240
H 2.7909 -0.8266 -4.4988
H 3.1601 -1.6259 -1.5339
H 2.9569 -2.7412 -2.9322
H 0.7635 -2.4614 -1.6970
H 0.6895 -1.8463 -3.3519
H -1.2357 -1.2739 -0.7716
H -2.5884 -1.8344 0.1071
H -1.4870 -3.0155 -0.7403
H -1.9867 -3.7268 1.6323
H -1.8893 -4.9933 3.4769
H -1.2532 -4.1398 4.9212
H -0.2081 -5.3229 3.9997
H 1.1976 -2.9278 4.3162
H 2.8163 -1.3686 3.9314
H 2.2181 0.1016 3.1851
H 3.2101 -1.0543 2.1824
H 8.5737 0.2884 1.9683
H 9.2154 2.1550 3.4342
H 7.6876 4.0603 3.8109
H 5.4266 4.0306 2.8280
H 4.6984 2.1658 1.4507
H 7.4840 -2.5116 -1.0099
H 7.9848 -4.7379 -0.0863
H 7.2550 -5.3568 2.1658
H 5.9986 -3.7440 3.5397
H 5.4516 -1.4826 2.6831
H 6.2024 -0.0561 -2.4086
H 4.9038 2.0106 -2.1511
H 6.4019 2.3724 -3.0462
H 5.8112 2.7228 -0.2388
H 5.9609 4.0799 -1.1782
H 8.1186 3.6073 0.2017
H 8.3204 3.7358 -1.5799
H 8.5985 1.1406 0.0288
H 9.7634 1.9011 -0.9276
H 8.5904 -0.2153 -1.7723
H 8.3262 1.1646 -2.8703
