59
 
P 1.0817 -0.0039 0.0576
C 0.2898 -1.4672 0.8191
C -0.8334 -1.3322 1.6432
C -1.3806 -2.4419 2.2951
C -0.8078 -3.7062 2.1459
C 0.3288 -3.8635 1.3518
C 0.8861 -2.7517 0.6968
C 0.5151 1.4067 1.0641
C 0.9202 1.6267 2.3998
C 0.3533 2.6800 3.1440
C -0.6152 3.5087 2.5690
C -1.0018 3.3068 1.2445
C -0.4361 2.2691 0.4978
C 0.5988 -0.2604 -1.6887
C 0.8690 0.7653 -2.6505
O 1.5456 1.8963 -2.2896
C 1.8545 2.9528 -3.1382
C 0.3829 0.6166 -3.9706
C -0.3604 -0.5005 -4.3341
C -0.6301 -1.4898 -3.3987
C -0.1606 -1.3741 -2.0954
Ag 3.5417 -0.0039 0.0576
N 5.6417 -0.0039 0.0576
C 5.6506 -0.9727 -1.0421
C 6.2045 1.3163 -0.2173
C 6.3433 -0.7356 1.0885
C 5.6810 -1.7210 1.8451
C 6.3523 -2.3950 2.8720
C 7.6911 -2.1051 3.1511
C 8.3837 -1.1883 2.3651
C 7.7274 -0.5220 1.3351
H -1.2869 -0.3664 1.7904
H -2.2488 -2.3160 2.9260
H -1.2395 -4.5597 2.6569
H 0.7775 -4.8482 1.2587
H 1.7872 -2.9032 0.1114
H 1.6530 0.9903 2.8783
H 0.6456 2.8521 4.1737
H -1.0717 4.3048 3.1479
H -1.7545 3.9450 0.7987
H -0.7697 2.1172 -0.5184
H 2.3687 3.7590 -2.5759
H 0.9327 3.3889 -3.5862
H 2.5287 2.6086 -3.9526
H 0.5502 1.3722 -4.7276
H -0.7431 -0.5921 -5.3418
H -1.2248 -2.3484 -3.6747
H -0.4392 -2.1604 -1.4217
H 4.9192 -0.6310 -1.8087
H 5.1851 -1.9427 -0.7358
H 6.6458 -1.1552 -1.4961
H 5.4042 2.0208 -0.5099
H 6.9097 1.2440 -1.0817
H 6.7695 1.7495 0.6342
H 4.6456 -1.9624 1.6403
H 5.8306 -3.1361 3.4608
H 8.1991 -2.5997 3.9674
H 9.4305 -0.9829 2.5536
H 8.3143 0.1652 0.7378
