61
 
P 0.9068 0.0157 -0.0328
C 0.5712 -0.9318 -1.5577
C 0.2902 -0.3184 -2.7826
C -0.0589 -1.0624 -3.9093
C -0.1193 -2.4508 -3.8378
C 0.1789 -3.0938 -2.6353
C 0.5208 -2.3415 -1.5000
C 0.3117 -0.8207 1.5361
C 0.9623 -0.6861 2.7826
C 0.4674 -1.3306 3.9395
C -0.6744 -2.1308 3.8801
C -1.3196 -2.3091 2.6606
C -0.8356 -1.6675 1.5015
C -0.0371 1.6766 -0.1264
C 0.4607 2.4290 1.1215
C 1.9446 2.8707 0.9367
C 2.0206 3.9915 -0.0949
C 1.5035 3.4785 -1.4394
C 0.1183 2.7856 -1.2886
Ag 3.3668 0.0157 -0.0328
N 5.4668 0.0157 -0.0328
C 6.0758 -1.1546 0.2503
C 5.2044 -2.3314 0.5369
C 7.4772 -1.2282 0.2670
C 8.2293 -0.0760 -0.0210
C 9.7303 -0.1041 -0.0178
C 7.5641 1.1206 -0.3172
C 6.1635 1.1500 -0.3181
C 5.4235 2.4129 -0.6246
H 0.3310 0.7263 -2.8934
H -0.2889 -0.5538 -4.8368
H -0.3962 -3.0227 -4.7147
H 0.1314 -4.1745 -2.5850
H 0.7284 -2.8676 -0.5771
H 1.8491 -0.0810 2.8721
H 0.9638 -1.2148 4.8956
H -1.0568 -2.6179 4.7765
H -2.1994 -2.9476 2.6260
H -1.3757 -1.8465 0.5821
H -1.1165 1.4322 -0.0738
H 0.3554 1.7805 2.0038
H -0.1620 3.3284 1.3159
H 2.5886 2.0363 0.5928
H 2.3635 3.2327 1.8929
H 3.0633 4.3676 -0.2109
H 1.4050 4.8426 0.2724
H 2.2408 2.7762 -1.8767
H 1.4348 4.3580 -2.1298
H -0.2467 2.5238 -2.2927
H -0.5763 3.6123 -1.0178
H 4.1211 -2.0370 0.4370
H 5.4123 -2.6952 1.5657
H 5.4252 -3.1399 -0.1889
H 7.9720 -2.1636 0.4969
H 10.1194 -1.1134 0.2319
H 10.1170 0.6175 0.7332
H 10.1129 0.1823 -1.0207
H 8.1311 2.0172 -0.5414
H 6.1160 3.2534 -0.8440
H 4.8114 2.6935 0.2540
H 4.7652 2.2570 -1.5047
