58
 
P 1.0646 -0.0740 0.0184
C 0.4538 -1.0894 -1.3463
C -0.6936 -1.8888 -1.3312
C -0.9842 -2.7059 -2.4385
C -0.1387 -2.7253 -3.5564
C 0.9941 -1.9160 -3.5842
C 1.2874 -1.1047 -2.4874
C 0.5997 -1.1172 1.4096
C 0.9961 -2.4439 1.5992
C 0.5444 -3.1436 2.7334
C -0.2901 -2.5208 3.6733
C -0.6723 -1.1940 3.4921
C -0.2294 -0.4985 2.3688
C 0.6009 1.6554 -0.1665
C 1.3216 2.6910 0.4789
C 2.5982 2.4592 1.2411
C 0.8283 4.0048 0.4283
C -0.3580 4.2958 -0.2456
C -1.0711 3.2765 -0.8748
C -0.5994 1.9623 -0.8310
Ag 3.5246 -0.0740 0.0184
N 5.6246 -0.0740 0.0184
C 5.6102 0.1537 -1.4331
C 6.3165 1.1611 0.4484
C 6.3110 -1.2936 0.3220
C 5.5718 -2.4538 0.5737
C 6.2453 -3.6381 0.9458
C 7.6456 -3.6622 1.0536
C 8.3840 -2.5160 0.7803
C 7.7292 -1.3444 0.4183
H -1.3442 -1.8968 -0.4710
H -1.8587 -3.3395 -2.4291
H -0.3552 -3.3695 -4.4006
H 1.6525 -1.9278 -4.4476
H 2.1870 -0.4975 -2.5270
H 1.6406 -2.9293 0.8817
H 0.8373 -4.1714 2.8898
H -0.6412 -3.0608 4.5443
H -1.3124 -0.7029 4.2182
H -0.5417 0.5340 2.2498
H 2.9744 1.4378 1.1664
H 2.4370 2.7235 2.3117
H 3.4056 3.0859 0.8233
H 1.3623 4.8066 0.9237
H -0.7299 5.3121 -0.2694
H -2.0013 3.5036 -1.3802
H -1.1910 1.1827 -1.2941
H 4.9904 1.0648 -1.6507
H 5.0503 -0.6648 -1.9316
H 6.5994 0.2679 -1.9276
H 5.6951 2.0691 0.3004
H 7.2706 1.3469 -0.1157
H 6.6285 1.0943 1.5089
H 4.4785 -2.3985 0.4909
H 5.6939 -4.5415 1.1637
H 8.1689 -4.5641 1.3497
H 9.4667 -2.5241 0.8576
H 8.3533 -0.4845 0.2260
