54
 
P 1.2750 0.0000 0.0000
O 0.4374 1.2223 0.8859
C -0.9566 1.1538 0.8016
C -1.3997 -0.0375 -0.0258
C -2.9291 -0.0857 -0.0604
C -0.7780 0.1642 -1.4607
O 0.6244 0.4620 -1.4935
O 0.6302 -1.2708 0.9155
C -0.7810 -1.3148 0.6634
Ag 3.7350 0.0003 -0.0005
P 6.1950 0.0007 -0.0009
N 7.1506 0.9407 -1.1702
C 6.6823 2.3348 -1.1038
C 8.6056 0.8930 -1.3582
C 9.1564 -0.4880 -1.2538
N 9.5056 -1.0350 0.1233
C 8.8975 -0.6736 1.4787
C 8.2222 0.6962 1.7197
N 6.7393 0.8047 1.4639
C 5.9160 0.2512 2.5464
N 6.4314 -1.8287 -0.4888
C 5.6789 -2.3018 -1.6492
C 7.5643 -2.7760 -0.0548
C 9.1718 -2.4845 -0.0432
H -1.3234 2.1050 0.3559
H -1.3518 1.0826 1.8385
H -3.3257 0.8558 -0.5020
H -3.3264 -0.1644 0.9764
H -3.2821 -0.9486 -0.6553
H -1.2872 1.0341 -1.9304
H -0.9896 -0.7278 -2.0868
H -1.2720 -1.4355 1.6545
H -1.0183 -2.2130 0.0571
H 5.5700 2.3864 -1.0410
H 6.9803 2.8981 -2.0111
H 7.0995 2.8375 -0.2039
H 9.1936 1.6432 -0.8077
H 8.7354 1.1679 -2.4337
H 10.0439 -0.6126 -1.9076
H 8.4243 -1.0897 -1.8580
H 9.7162 -0.8281 2.2107
H 8.1688 -1.4100 1.8936
H 8.8098 1.4914 1.2422
H 8.3753 0.8991 2.8029
H 6.1696 0.7348 3.5132
H 6.0559 -0.8473 2.6451
H 4.8295 0.4337 2.3197
H 4.6051 -2.1023 -1.4959
H 5.7652 -3.4101 -1.7586
H 6.0906 -1.8394 -2.5648
H 7.6538 -1.8441 -0.1083
H 7.6261 -3.6008 -0.8053
H 9.6867 -2.8525 -0.9736
H 9.6972 -3.0931 0.7310
