33
 
C 0.9010 -0.6430 -0.0020
N -0.3420 -1.0991 0.0069
C -0.6783 -2.5158 0.0120
C 0.6167 -3.3967 0.0122
C -1.1301 -0.0005 0.0076
C -0.3002 1.1192 0.0011
N 0.9766 0.6837 -0.0049
C 2.2299 1.4384 -0.0098
C 3.4666 0.4978 -0.0219
Ag 2.6584 -1.8814 -0.0135
N 4.3750 -3.0911 -0.0247
C 5.5886 -2.4836 -0.1154
C 6.7505 -3.2493 -0.2322
F 7.9577 -2.6461 -0.3640
C 6.6516 -4.6418 -0.2356
C 5.3983 -5.2480 -0.1169
C 4.2567 -4.4459 -0.0155
H -1.2989 -2.7364 -0.8851
H -1.2940 -2.7311 0.9136
H 1.2516 -3.2188 -0.8655
H 0.2850 -4.4559 0.0159
H 1.2554 -3.2111 0.8861
H -2.2125 -0.0023 0.0127
H -0.6039 2.1586 0.0006
H 2.2645 2.0815 0.8960
H 2.2558 2.0904 -0.9089
H 3.4893 -0.1594 0.8621
H 4.3867 1.1142 -0.0164
H 3.4817 -0.1432 -0.9189
H 5.6472 -1.4041 -0.1367
H 7.5421 -5.2489 -0.3373
H 5.3122 -6.3267 -0.1215
H 3.2775 -4.9000 0.0513
