56
 
C 0.9010 -0.6430 -0.0020
N -0.3469 -1.1246 -0.0097
C -0.7033 -2.5418 0.0036
C 0.6156 -3.4058 0.0851
C -1.5879 -2.8151 1.2396
C -1.5332 -2.8552 -1.2638
C -1.1654 -0.0469 -0.0056
C -0.3828 1.0852 0.0205
N 0.9114 0.7000 0.0262
C 2.0973 1.5539 0.0277
C 2.0863 2.4564 1.2801
C 3.3640 0.6475 -0.0292
C 2.0475 2.4487 -1.2277
Ag 2.6584 -1.8814 -0.0135
N 4.3750 -3.0911 -0.0247
C 4.3038 -4.2672 0.6591
C 5.4209 -5.1054 0.7590
C 6.5730 -4.8064 0.0386
C 6.6025 -3.6685 -0.7654
C 7.6775 -3.4447 -1.6354
C 7.6610 -2.3612 -2.5128
C 6.5848 -1.4554 -2.5132
C 6.5102 -0.2858 -3.4506
O 5.5507 0.4696 -3.3813
C 7.5557 0.0423 -4.4847
C 5.5243 -1.6854 -1.6141
C 5.5047 -2.7771 -0.7427
H 1.2011 -3.1812 0.9906
H 1.3044 -3.2290 -0.7453
H 0.3303 -4.4784 0.0805
H -1.0351 -2.5779 2.1719
H -1.9142 -3.8758 1.2698
H -2.5069 -2.1838 1.2232
H -0.9539 -2.6396 -2.1847
H -2.4565 -2.2282 -1.2971
H -1.8607 -3.9157 -1.2792
H -2.2474 -0.0713 -0.0113
H -0.7323 2.1099 0.0307
H 2.1072 1.8495 2.2078
H 1.1641 3.0832 1.3038
H 2.9541 3.1499 1.2785
H 3.4542 -0.0998 0.7634
H 4.2738 1.2895 -0.0700
H 3.2547 0.0374 -0.9098
H 1.1294 3.0785 -1.2302
H 2.0267 1.8185 -2.1422
H 2.9261 3.1252 -1.2715
H 3.4101 -4.5039 1.2197
H 5.3918 -5.9924 1.3779
H 7.4192 -5.4830 0.0709
H 8.5076 -4.1394 -1.6815
H 8.4908 -2.2720 -3.1926
H 8.3898 -0.6754 -4.5400
H 7.9856 1.0389 -4.2547
H 7.0845 0.0771 -5.4898
H 4.6858 -1.0553 -1.6607
