50
 
P 0.9275 -0.0072 -0.0685
C 0.2212 1.5874 0.6502
C -1.2870 1.8857 0.7004
C 0.7872 1.8044 2.0636
C 0.4295 -0.0795 -1.8661
C -1.0987 -0.1264 -2.1323
C 1.0367 1.0506 -2.6747
C 0.4518 -1.4223 1.0766
C -1.0726 -1.6582 1.1562
C 1.0450 -2.7735 0.6207
Ag 3.3875 -0.0072 -0.0685
P 5.8475 -0.0072 -0.0685
O 6.6821 -0.4465 -1.5142
C 8.0766 -0.4161 -1.4160
C 8.5219 0.0059 -0.0290
C 10.0512 0.0228 0.0252
C 7.9024 1.4346 0.2214
O 6.4952 1.5570 -0.0267
O 6.4963 -1.2829 0.8369
C 7.9033 -1.0418 0.9747
H 0.6669 2.3889 0.0230
H -1.8577 1.2208 1.3567
H -1.7543 1.9593 -0.2806
H -1.4358 2.8995 1.1302
H 0.3279 1.1026 2.7906
H 0.5668 2.8413 2.4066
H 1.8913 1.6810 2.0797
H 0.8287 -1.0405 -2.2540
H -1.6132 0.8134 -1.9147
H -1.6147 -0.9457 -1.6082
H -1.2985 -0.2857 -3.2120
H 0.6656 2.0303 -2.3113
H 0.7394 0.9371 -3.7415
H 2.1414 0.9987 -2.6033
H 0.8265 -1.1946 2.0924
H -1.4993 -2.0120 0.1981
H -1.6229 -0.7820 1.4894
H -1.3058 -2.4501 1.8981
H 0.6771 -3.0673 -0.3898
H 0.7205 -3.5819 1.3195
H 2.1504 -2.7632 0.6181
H 8.4564 0.2914 -2.1856
H 8.4570 -1.4321 -1.6615
H 10.4468 0.7294 -0.7383
H 10.4472 -0.9892 -0.2156
H 10.4059 0.3276 1.0274
H 8.4017 2.1460 -0.4725
H 8.1283 1.7602 1.2581
H 8.4033 -2.0188 0.7945
H 8.1289 -0.7347 2.0171
