85
 
C 1.0240 -0.6530 -0.0550
N 0.5115 -0.4081 1.1036
C 0.9749 -0.9317 2.3645
C -0.6579 0.4413 1.0116
C -0.5858 1.0027 -0.3913
N 0.2548 0.0619 -1.0749
C 0.2084 0.0585 -2.5433
Ag 2.7802 -1.8697 -0.2955
C 4.5364 -3.0865 -0.5360
N 4.5278 -4.4027 -0.5342
C 3.4323 -5.4231 -0.2265
C 2.0153 -5.1959 0.1242
C 1.3447 -3.8669 0.3623
C 0.6254 -3.4449 -0.9436
C 0.2600 -3.9840 1.4594
C 1.1113 -6.3110 0.3305
C 1.4541 -7.6004 0.2176
C 2.7231 -7.8653 -0.0715
C 3.7145 -6.8481 -0.2260
C 5.0433 -7.4938 -0.2875
C 5.1890 -8.1859 1.1358
C 5.0722 -8.1858 -1.6836
C 5.8861 -4.7569 -0.9903
C 6.5299 -3.5301 -1.5685
N 5.8110 -2.4805 -0.9399
C 6.3459 -1.1557 -0.5928
C 5.4517 -0.0254 -0.4487
C 3.9832 -0.0150 -0.8338
C 3.3611 1.3430 -1.1451
C 3.6328 -0.8041 -2.1653
C 5.9254 1.1781 0.0985
C 7.2279 1.3673 0.4200
C 8.1355 0.3826 0.1771
C 7.7815 -0.8914 -0.3351
C 9.0005 -1.8440 -0.5563
C 9.5124 -1.7341 -2.0129
C 10.2113 -1.5815 0.3528
H 1.8606 -1.5875 2.2209
H 0.1457 -1.4626 2.8770
H 1.2286 -0.0999 3.0429
H -0.6879 1.2703 1.7478
H -1.5605 -0.2052 1.1058
H -0.0396 1.9749 -0.3989
H -1.5904 1.1434 -0.8487
H -0.4667 0.8728 -2.9005
H -0.2287 -0.8844 -2.9252
H 1.1359 0.3365 -3.0663
H 2.0889 -3.1927 0.8633
H -0.0158 -4.2654 -1.3353
H 1.3458 -3.1513 -1.7350
H -0.1030 -2.6349 -0.7636
H -0.6308 -4.5112 1.0857
H -0.2442 -3.0650 1.7170
H 0.7086 -4.4636 2.3614
H 0.0793 -6.2726 0.6088
H 0.7396 -8.4025 0.4049
H 2.9485 -8.9279 -0.1061
H 5.9377 -6.9155 -0.2713
H 4.3095 -8.7497 1.5304
H 5.2476 -7.3670 1.8995
H 6.0503 -8.8487 1.2861
H 4.5772 -9.1481 -1.6120
H 6.0923 -8.2526 -2.1192
H 4.4500 -7.6530 -2.4701
H 5.9565 -5.4835 -1.8331
H 6.5092 -4.9962 -0.0971
H 6.3512 -3.3840 -2.6509
H 7.6081 -3.6359 -1.5572
H 3.5288 -0.1949 0.1730
H 3.8150 1.7345 -2.0724
H 3.3511 2.0502 -0.3026
H 2.2956 1.2182 -1.3389
H 4.1355 -0.4541 -3.0669
H 2.5568 -0.8174 -2.3228
H 3.6926 -1.8751 -2.2144
H 5.2987 2.0236 0.2986
H 7.5466 2.3142 0.8348
H 9.1314 0.6837 0.4245
H 8.7860 -2.8671 -0.2171
H 9.7817 -0.6770 -2.2425
H 8.7669 -2.0691 -2.7594
H 10.4338 -2.3441 -2.1541
H 10.6786 -0.5994 0.1545
H 11.0300 -2.3087 0.1635
H 9.8753 -1.7009 1.4035
