73
 
P 1.2750 0.0000 0.0000
N 0.4252 1.5248 -0.2663
C 1.0010 2.5139 0.6998
C 2.5424 2.6647 0.5427
C 0.4243 3.9224 0.5306
C -1.0275 1.3964 -0.2572
C -1.4464 -0.0365 0.0151
C -2.9793 -0.0819 0.0146
C -0.8976 -0.9638 -1.1357
N 0.5885 -0.9851 -1.3225
C 1.0668 -2.4136 -1.2156
C 0.5500 -3.3876 -2.2835
C 2.5602 -2.5136 -1.2711
N 0.6319 -0.3670 1.6134
C 1.1967 -1.6688 2.1340
C 2.7452 -1.7060 2.2097
C 0.6212 -2.1353 3.4805
C -0.8674 -0.4572 1.4339
Ag 3.7350 0.0003 -0.0005
C 5.8850 0.0006 -0.0009
N 6.6002 0.8767 0.6169
C 6.1185 2.0399 1.3152
C 8.0125 0.6212 0.4636
C 8.0673 -0.7879 -0.1015
N 6.7470 -0.9747 -0.6421
C 6.4787 -1.9639 -1.6602
C 7.4616 -2.8954 -2.0946
C 7.1808 -3.8332 -3.1039
C 5.9175 -3.8828 -3.6802
C 4.9576 -2.9649 -3.2866
C 5.2569 -1.9938 -2.3038
H 0.7894 2.1762 1.7400
H 2.8282 3.0368 -0.4597
H 3.0880 1.7365 0.6780
H 2.9306 3.3470 1.3292
H 0.6524 4.3029 -0.4861
H 0.8887 4.5927 1.2868
H -0.6637 3.9679 0.7053
H -1.4016 1.7356 -1.2499
H -1.4914 2.0353 0.5169
H -3.3676 0.2467 -0.9759
H -3.3807 0.6074 0.7882
H -3.3386 -1.1086 0.2212
H -1.3408 -0.6709 -2.1113
H -1.3017 -1.9697 -0.8959
H 0.7075 -2.8798 -0.3206
H 0.8935 -3.1002 -3.2963
H -0.5463 -3.4932 -2.2576
H 0.9680 -4.3995 -2.0488
H 2.7587 -2.1988 -2.2945
H 2.9414 -3.5319 -1.0353
H 3.0997 -1.8472 -0.6197
H 0.8797 -2.4900 1.5237
H 3.1170 -0.9950 2.9692
H 3.2839 -1.4900 1.2710
H 3.0728 -2.7378 2.4666
H 0.8968 -1.4540 4.3028
H 1.0232 -3.1551 3.6966
H -0.4794 -2.2683 3.4482
H -1.3255 0.1932 2.2109
H -1.2485 -1.4841 1.5994
H 5.0305 2.0916 1.3044
H 6.5236 2.9539 0.8275
H 6.4619 2.0108 2.3692
H 8.5906 0.6786 1.4095
H 8.4040 1.3535 -0.2781
H 8.1783 -1.5320 0.7204
H 8.8952 -0.8799 -0.8349
H 8.4546 -2.9075 -1.6756
H 7.9382 -4.5265 -3.4454
H 5.6812 -4.6133 -4.4472
H 3.9931 -3.0228 -3.7735
H 4.5652 -1.2290 -2.0207
