55
 
C 0.9010 -0.6430 -0.0020
N 0.6782 0.3001 -0.9340
C 1.4904 0.5569 -2.1142
C -0.5040 0.8684 -0.6311
C -0.9811 0.2658 0.5170
N -0.0990 -0.6887 0.8863
C -0.1268 -1.5180 2.0718
Ag 2.6584 -1.8814 -0.0135
C 4.4159 -3.1199 -0.0250
N 4.4162 -4.4710 0.0655
C 3.2207 -5.3100 0.0149
C 3.0945 -6.2058 1.2367
C 3.0847 -5.3957 2.5317
C 1.9243 -4.3920 2.5730
C 5.7211 -4.8357 0.0102
C 6.4883 -3.7034 -0.0589
C 7.8867 -3.7572 -0.0592
C 8.4963 -5.0222 -0.0467
C 7.7106 -6.1927 -0.0380
C 6.3049 -6.1110 -0.0066
N 5.6724 -2.6286 -0.1100
C 6.0291 -1.2121 -0.0954
C 6.7338 -0.8241 -1.3846
C 5.7994 -1.1678 -2.5474
C 6.3997 -0.8547 -3.8977
H 2.3806 -0.1129 -2.1200
H 1.8028 1.6179 -2.1444
H 0.8818 0.3354 -3.0227
H -0.9839 1.6511 -1.2062
H -1.8952 0.5153 1.0399
H -1.0195 -1.2842 2.6875
H 0.7838 -1.2933 2.6745
H -0.1268 -2.5806 1.7735
H 3.2507 -5.9328 -0.9049
H 2.3183 -4.6674 -0.0842
H 3.9369 -6.9225 1.2675
H 2.1598 -6.8012 1.1460
H 4.0465 -4.8514 2.6486
H 3.0015 -6.1187 3.3734
H 2.0017 -3.5811 1.7625
H 1.9225 -3.9130 3.5747
H 0.9714 -4.9606 2.4737
H 8.4978 -2.8673 -0.0711
H 9.5767 -5.0976 -0.0547
H 8.1973 -7.1601 -0.0478
H 5.7212 -7.0183 0.0017
H 6.6662 -1.0009 0.7936
H 5.1028 -0.6002 0.0069
H 7.6932 -1.3708 -1.4826
H 6.9672 0.2626 -1.3535
H 4.8481 -0.6075 -2.4199
H 5.5769 -2.2566 -2.5388
H 6.6139 0.2294 -3.9790
H 5.6605 -1.1469 -4.6726
H 7.3284 -1.4461 -4.0450
