43
 
C 0.9010 -0.6430 -0.0020
N 0.9144 0.6816 0.0689
C 2.1299 1.4750 0.1492
C 3.3904 0.5552 0.1181
C -0.3827 1.0632 0.0568
C -1.1634 -0.0847 -0.0282
N -0.3307 -1.1437 -0.0613
C -0.6389 -2.5645 -0.1478
C 0.6558 -3.4043 -0.1448
Ag 2.6584 -1.8814 -0.0135
C 4.4159 -3.1199 -0.0250
N 5.7524 -2.7893 -0.0215
C 6.4017 -1.4844 -0.0182
C 6.4437 -3.9684 -0.0372
C 7.9439 -4.1768 -0.0501
C 5.5482 -5.0028 -0.0432
C 5.8886 -6.4760 -0.0534
N 4.3026 -4.4834 -0.0372
C 3.0846 -5.2814 -0.0312
H 2.1073 2.0703 1.0895
H 2.1455 2.1872 -0.7055
H 3.4221 -0.1531 0.9563
H 4.2725 1.2284 0.1660
H 3.4457 -0.0604 -0.7901
H -0.7400 2.0836 0.1054
H -2.2443 -0.1418 -0.0614
H -1.2109 -2.7571 -1.0817
H -1.2690 -2.8529 0.7206
H 1.3088 -3.1536 -0.9945
H 0.3625 -4.4720 -0.2089
H 1.2377 -3.2366 0.7734
H 5.6700 -0.6678 -0.0151
H 7.0447 -1.3917 -0.9215
H 7.0540 -1.3974 0.8785
H 8.5294 -3.2390 -0.0470
H 8.2283 -4.7610 -0.9545
H 8.2443 -4.7791 0.8366
H 6.9829 -6.6588 -0.0580
H 5.4667 -6.9564 -0.9604
H 5.4740 -6.9647 0.8526
H 3.3033 -6.3685 -0.0302
H 2.5076 -5.0789 -0.9510
H 2.5138 -5.0744 0.8941
