31
 
C 0.9010 -0.6430 -0.0020
N -0.3522 -1.1105 0.0711
C -0.7353 -2.5101 0.1650
C -1.1575 -0.0289 0.0472
C -0.3578 1.0987 -0.0419
N 0.9287 0.6961 -0.0692
C 2.1265 1.5187 -0.1597
Ag 2.6584 -1.8814 -0.0135
N 4.3750 -3.0911 -0.0247
C 4.2061 -4.4281 0.1118
C 5.3117 -5.2602 0.2378
C 6.6069 -4.7095 0.2028
O 7.7161 -5.4780 0.3586
C 7.6944 -6.8287 0.6501
C 6.7499 -3.3256 0.0190
C 5.6079 -2.5245 -0.0867
H 0.1797 -3.1513 0.1678
H -1.3749 -2.7806 -0.7010
H -1.3031 -2.6770 1.1051
H -2.2385 -0.0541 0.0920
H -0.6897 2.1282 -0.0834
H 1.8578 2.5954 -0.2072
H 2.6972 1.2466 -1.0729
H 2.7665 1.3426 0.7303
H 3.2077 -4.8399 0.1704
H 5.1460 -6.3178 0.3823
H 8.7298 -7.2150 0.7232
H 7.1643 -7.3834 -0.1533
H 7.1815 -7.0003 1.6229
H 7.7314 -2.8680 -0.0145
H 5.6974 -1.4510 -0.1942
