41
 
C 0.9010 -0.6430 -0.0020
N -0.3458 -1.1085 0.0054
C -0.6977 -2.5294 0.0170
C 0.6193 -3.3998 -0.0074
C -1.5056 -2.8219 1.2969
C -1.5776 -2.8343 -1.2155
C -1.1421 -0.0135 0.0045
C -0.3292 1.1079 -0.0080
N 0.9560 0.6897 -0.0105
C 2.1978 1.4712 -0.0134
C 2.2124 2.3602 1.2429
C 3.4330 0.5047 0.0005
C 2.2390 2.3583 -1.2756
Ag 2.6584 -1.8814 -0.0135
C 4.4159 -3.1199 -0.0250
N 5.6715 -2.6344 -0.0265
C 6.4429 -3.7357 -0.0395
C 5.6272 -4.8449 -0.0465
O 4.3827 -4.4326 -0.0361
H 1.2635 -3.2076 0.8631
H 1.2440 -3.1994 -0.8899
H 0.3326 -4.4717 -0.0062
H -0.8868 -2.6114 2.1943
H -1.8376 -3.8807 1.3284
H -2.4136 -2.1785 1.3521
H -1.0265 -2.6146 -2.1535
H -2.5013 -2.2102 -1.2118
H -1.8962 -3.8980 -1.2274
H -2.2247 -0.0203 0.0115
H -0.6528 2.1412 -0.0120
H 2.1477 1.7325 2.1572
H 1.3397 3.0514 1.2446
H 3.1371 2.9715 1.2882
H 3.4200 -0.1530 0.8852
H 4.3763 1.0824 0.0241
H 3.4483 -0.1415 -0.8932
H 1.3734 3.0575 -1.3026
H 2.1973 1.7365 -2.1955
H 3.1684 2.9655 -1.3002
H 7.5245 -3.7300 -0.0445
H 5.9392 -5.8807 -0.0590
