62
 
C 0.9010 -0.6430 -0.0020
N -0.3818 -1.1962 -0.0334
C -0.9079 -2.6242 -0.0431
C -0.0618 -3.7988 0.0402
C 1.3201 -3.8422 0.2789
C -0.4945 -5.0936 0.0349
C -1.8091 -5.3786 0.0064
C -2.1731 -6.8183 0.0644
C -2.7302 -4.3346 -0.0360
C -2.3194 -2.9731 -0.0681
C -3.4524 -1.9888 -0.0831
C -1.1542 -0.0926 -0.0163
C -0.4172 1.0347 0.0395
N 0.9051 0.7729 0.0224
C 2.0168 1.8362 0.0088
C 1.8947 3.2807 -0.0395
C 0.6595 4.1061 -0.1271
C 3.0660 4.1144 -0.0292
C 4.3568 3.5865 0.0197
C 5.6232 4.3549 0.0396
C 4.5021 2.2633 0.0401
C 3.3911 1.4862 0.0251
C 3.7779 0.2475 0.0170
Ag 2.6584 -1.8814 -0.0135
N 4.3750 -3.0911 -0.0247
C 5.4265 -2.7901 -0.8374
N 6.4685 -3.6636 -0.9586
C 6.5594 -4.7774 -0.1773
O 7.5841 -5.6554 -0.3063
C 8.4769 -5.6387 -1.3567
C 5.5676 -5.0267 0.7599
C 4.4484 -4.1994 0.7711
H 1.3513 -2.9075 0.7177
H 1.8953 -3.9261 -0.6885
H 1.6868 -4.3730 1.1466
H 0.2293 -5.9119 0.1032
H -1.2650 -7.4701 0.1054
H -2.7261 -7.0721 -0.8541
H -2.7490 -7.0019 0.9897
H -3.7782 -4.5932 -0.0292
H -4.4528 -2.4621 -0.0772
H -3.4030 -1.3870 -1.0152
H -3.4204 -1.3866 0.8518
H -2.2051 0.0243 -0.0269
H -0.9629 1.9254 0.0893
H -0.2935 3.6538 -0.2272
H 0.7273 4.7113 -1.0506
H 0.6109 4.7379 0.7804
H 2.9770 5.1855 -0.0672
H 5.4169 5.4320 0.0061
H 6.2424 4.0409 -0.8340
H 6.1788 4.0849 0.9685
H 5.5112 1.8197 0.0659
H 4.5785 -0.3495 0.4280
H 3.4079 -0.2685 -0.8694
H 3.2043 -0.0646 0.9342
H 5.3551 -1.9626 -1.5291
H 9.2101 -6.4641 -1.2373
H 9.0177 -4.6718 -1.3807
H 7.9356 -5.7921 -2.3169
H 5.6442 -5.8593 1.4515
H 3.7052 -4.3912 1.5208
