48
 
C 0.9010 -0.6430 -0.0020
N -0.3414 -1.1298 0.0137
C -0.6825 -2.5493 0.0256
C 0.6359 -3.4100 0.0058
C -1.4843 -2.8402 1.3088
C -1.5614 -2.8528 -1.2084
C -1.1679 -0.0557 0.0200
C -0.3942 1.0817 0.0112
N 0.8980 0.7013 -0.0020
C 2.0735 1.5564 -0.0191
C 2.1011 2.4364 1.2451
C 3.3056 0.6484 -0.0547
C 2.0263 2.4567 -1.2675
Ag 2.6584 -1.8814 -0.0135
N 4.3750 -3.0911 -0.0247
C 5.6712 -2.6078 -0.0988
C 5.9860 -1.1766 -0.1516
C 6.7672 -3.4657 -0.1856
C 6.5641 -4.8314 -0.2096
C 5.2663 -5.3300 -0.1298
C 4.1803 -4.4428 -0.0325
H 1.2679 -3.2163 0.8863
H 1.2653 -3.2033 -0.8718
H 0.3567 -4.4829 -0.0024
H -0.8602 -2.6214 2.2011
H -1.8119 -3.8991 1.3459
H -2.3927 -2.1977 1.3681
H -1.0108 -2.6251 -2.1452
H -2.4866 -2.2303 -1.2043
H -1.8774 -3.9163 -1.2248
H -2.2492 -0.0835 0.0300
H -0.7421 2.1073 0.0116
H 2.1287 1.8059 2.1591
H 1.1946 3.0780 1.2941
H 2.9914 3.1019 1.2445
H 3.3452 -0.0380 0.8057
H 4.2211 1.2824 -0.0963
H 3.2732 -0.0522 -0.9031
H 1.1174 3.0977 -1.2443
H 1.9879 1.8421 -2.1916
H 2.9129 3.1241 -1.3109
H 5.0571 -0.7369 -0.1571
H 6.4934 -0.8965 -1.0983
H 6.5520 -0.8297 0.7358
H 7.7733 -3.0636 -0.2624
H 7.4171 -5.4913 -0.3020
H 5.1092 -6.3986 -0.1589
H 3.1772 -4.8400 0.0094
