32
 
C 1.0240 -0.6530 -0.0550
N 1.0477 0.6204 -0.1066
C 2.2594 1.3900 -0.2321
C -0.2772 1.1756 0.0707
C -1.1950 -0.0523 -0.0552
N -0.2786 -1.1434 0.1412
C -0.6470 -2.5114 0.4087
Ag 2.7802 -1.8697 -0.2955
N 4.4956 -3.0582 -0.5304
C 4.4046 -4.3818 -0.3013
C 3.0571 -4.9143 0.0418
C 5.5618 -5.1779 -0.3701
C 6.7912 -4.5680 -0.6608
C 6.8492 -3.1905 -0.8853
C 5.6732 -2.4452 -0.8177
H 3.1449 0.7038 -0.3272
H 2.3745 2.0335 0.6689
H 2.1871 2.0465 -1.1245
H -0.5457 1.9507 -0.6779
H -0.3279 1.5954 1.1004
H -1.5726 -0.1414 -1.1006
H -2.0418 -0.0212 0.6611
H -1.7538 -2.6016 0.4749
H -0.2210 -2.8120 1.3899
H -0.2672 -3.1839 -0.3851
H 2.3125 -4.0541 0.0365
H 3.1041 -5.3803 1.0491
H 2.7682 -5.6874 -0.7010
H 5.5221 -6.2434 -0.1862
H 7.7006 -5.1545 -0.7022
H 7.7929 -2.7017 -1.0950
H 5.6946 -1.3729 -0.9651
