75
 
C 0.9010 -0.6430 -0.0020
N -0.3215 -1.0299 0.4331
C -0.6369 -2.3020 1.0936
C 0.2817 -2.4578 2.3274
C -2.1017 -2.3314 1.5836
C -0.3755 -3.4229 0.1036
C -1.1374 0.0370 0.2683
C -0.4101 1.0599 -0.2673
N 0.8599 0.6342 -0.4264
C 1.9664 1.3281 -1.0644
C 1.5675 2.7493 -1.5069
C 3.1152 1.3537 -0.0616
C 2.3426 0.5429 -2.3338
Ag 2.6584 -1.8814 -0.0135
C 4.4159 -3.1199 -0.0250
N 5.7257 -2.7924 0.1180
C 6.5752 -1.5578 -0.0767
C 7.4836 -2.0243 -1.2201
C 6.5217 -2.4011 -2.4150
C 6.0845 -1.1092 -3.0559
C 5.4328 -0.2038 -1.9973
C 6.1228 -0.1497 -0.6291
C 6.3160 -4.0121 0.3442
C 5.4109 -5.0220 0.2304
N 4.2232 -4.4646 0.0141
C 2.9098 -5.0937 -0.0891
C 2.5928 -5.4230 -1.5604
C 3.2790 -6.7233 -2.0204
C 2.7857 -7.8940 -1.1594
C 3.2000 -7.6726 0.2996
C 2.6428 -6.3297 0.8294
H 0.1075 -1.6234 3.0438
H 1.3538 -2.4391 2.0351
H 0.0837 -3.4148 2.8556
H -2.2758 -1.5038 2.3097
H -2.3375 -3.2862 2.0964
H -2.8009 -2.2002 0.7311
H 0.6737 -3.2800 -0.2488
H -1.0554 -3.3294 -0.7692
H -0.5413 -4.4150 0.5819
H -2.1847 0.0942 0.5286
H -0.7972 2.0337 -0.5335
H 1.2116 3.3458 -0.6431
H 0.7452 2.6840 -2.2569
H 2.4195 3.2735 -1.9871
H 2.7879 1.8836 0.8628
H 3.9693 1.9236 -0.4814
H 3.3971 0.2808 0.1755
H 1.5283 0.5221 -3.0816
H 2.5105 -0.5251 -2.0905
H 3.2160 1.0120 -2.8227
H 7.0979 -1.3301 0.8802
H 8.0927 -2.8522 -0.8455
H 8.2528 -1.2879 -1.5233
H 5.5677 -2.9157 -2.1622
H 6.9848 -3.1075 -3.1165
H 5.3480 -1.3058 -3.8717
H 6.9922 -0.6563 -3.4943
H 4.4857 -0.6521 -1.7349
H 5.3323 0.8186 -2.4369
H 5.5619 0.4671 0.0901
H 7.0499 0.4571 -0.7882
H 7.3620 -4.2089 0.5223
H 5.6228 -6.0722 0.3144
H 2.2485 -4.2861 0.2749
H 2.8981 -4.5731 -2.2084
H 1.4967 -5.5624 -1.6714
H 4.3867 -6.6443 -1.9495
H 3.0168 -6.9167 -3.0821
H 3.2134 -8.8517 -1.5290
H 1.6770 -7.9667 -1.2355
H 4.3004 -7.7226 0.3648
H 2.8110 -8.5099 0.9223
H 2.9837 -6.1465 1.8707
H 1.5399 -6.4660 0.8604
