34
 
C 0.9010 -0.6430 -0.0020
N -0.3460 -1.0984 0.0218
C -0.6971 -2.5099 0.0461
C 0.5903 -3.4012 0.0374
C -1.1371 -0.0015 0.0168
C -0.3135 1.1185 -0.0145
N 0.9638 0.6877 -0.0283
C 2.2026 1.4575 -0.0666
C 3.4316 0.5169 -0.0658
Ag 2.6584 -1.8814 -0.0135
N 4.3750 -3.0911 -0.0247
C 4.7776 -2.5037 1.2683
N 5.5711 -2.8024 -0.6411
C 6.2953 -3.8707 -0.7033
C 5.5659 -4.9738 -0.2607
C 4.3088 -4.4903 0.0611
H -1.3368 -2.7313 -0.8390
H -1.3072 -2.7086 0.9566
H 1.2249 -3.2325 -0.8397
H 0.2367 -4.4561 0.0544
H 1.2470 -3.2117 0.8933
H -2.2196 -0.0040 0.0323
H -0.6211 2.1569 -0.0284
H 2.2375 2.1160 0.8291
H 2.2120 2.0975 -0.9750
H 3.3841 -0.1057 0.8271
H 4.3536 1.1306 -0.0433
H 3.4615 -0.1526 -0.9398
H 4.9560 -1.4120 1.1719
H 5.7104 -2.9270 1.7160
H 3.9646 -2.6376 2.0116
H 7.3231 -3.8819 -1.0418
H 5.8937 -6.0037 -0.2020
H 3.4627 -5.0615 0.4187
