74
 
C 2.3298 0.0446 0.0231
N 1.5420 1.1427 0.0606
C 2.0431 2.5092 0.0344
C 1.6661 3.2593 1.2957
C 2.2126 2.6224 2.5541
C 3.7397 2.5671 2.5056
C 0.2596 0.6832 0.0231
C 0.2899 -0.6813 -0.0151
C -0.8906 -1.4457 -0.0030
C -2.1184 -0.7771 0.0004
C -2.1569 0.6195 0.0001
C -0.9756 1.3666 0.0153
N 1.5787 -1.0863 -0.0467
C 2.0751 -2.4553 -0.0369
C 1.5606 -3.2144 -1.2310
C 2.0658 -2.4597 -2.4628
C 1.5412 -3.1127 -3.6725
Ag 4.4405 0.0475 0.0714
P 6.8937 -0.0331 0.1254
C 7.7146 -1.0362 -1.1563
C 7.4050 -0.6148 -2.4638
C 7.8999 -1.3019 -3.5719
C 8.7913 -2.3571 -3.3883
C 9.1441 -2.7521 -2.1027
C 8.5510 -2.1501 -0.9988
C 7.7211 1.6099 0.1078
C 7.1275 2.8869 0.0314
C 7.9008 4.0541 -0.0331
C 9.2707 4.0023 0.0881
C 9.8701 2.7763 0.2593
C 9.1004 1.5839 0.2146
C 7.3102 -0.9089 1.7490
C 6.2562 -1.2001 2.6143
C 6.4914 -1.7320 3.8885
C 7.7906 -1.9149 4.3498
C 8.8504 -1.6348 3.4912
O 9.9958 -1.7972 3.8872
N 8.6007 -1.1745 2.2031
H 1.6195 3.0430 -0.8374
H 3.1485 2.5028 -0.0967
H 0.5632 3.2652 1.3710
H 2.0865 4.2861 1.2317
H 1.7931 1.5992 2.6556
H 1.8699 3.2458 3.4144
H 4.1102 1.9172 1.6438
H 4.0988 2.1339 3.4566
H 4.1379 3.6063 2.4086
H -0.9095 -2.5177 0.0163
H -3.0479 -1.3275 0.0041
H -3.1045 1.1376 -0.0007
H -1.1109 2.4298 0.0255
H 1.7329 -2.9459 0.8918
H 3.1852 -2.4467 -0.0920
H 0.4571 -3.2825 -1.2241
H 1.9024 -4.2716 -1.2075
H 3.1649 -2.4836 -2.5130
H 1.6733 -1.4095 -2.4556
H 1.9173 -4.1614 -3.6963
H 1.8385 -2.6316 -4.6212
H 0.4713 -2.9240 -3.4869
H 6.7571 0.2451 -2.6197
H 7.6114 -1.0045 -4.5683
H 9.2084 -2.8785 -4.2319
H 9.8681 -3.5363 -1.9353
H 8.7912 -2.5742 -0.0586
H 6.0886 3.0671 0.0279
H 7.4321 5.0120 -0.1458
H 9.8729 4.9064 0.0828
H 10.9283 2.8441 0.4248
H 9.4967 0.5986 0.2896
H 5.2490 -0.9995 2.3024
H 5.6585 -1.9858 4.5290
H 7.9668 -2.2781 5.3613
H 9.4447 -1.0269 1.6095
