54
 
C 2.3270 0.0340 0.0000
N 1.5446 1.1427 -0.0121
C 2.0485 2.5166 -0.0043
C 2.9925 2.7099 -1.1888
C 3.5658 4.1270 -1.2753
C 4.4401 4.2539 -2.5223
C 0.2686 0.6762 -0.0140
C 0.3108 -0.6940 -0.0046
C -0.8482 -1.4774 0.0005
C -2.0881 -0.8139 -0.0006
C -2.1425 0.5969 -0.0069
C -0.9562 1.3634 -0.0141
N 1.6006 -1.0863 0.0038
C 2.1364 -2.4220 0.0092
C 3.6999 -2.4240 0.0396
C 4.1523 -3.9052 0.0369
C 3.6335 -4.7188 1.2371
Ag 4.4769 0.0580 0.0014
N 6.5767 0.0815 0.0028
C 7.2175 -1.1157 -0.0802
C 8.6072 -1.1903 0.0254
C 9.3384 -0.0228 0.2735
C 10.8202 -0.0831 0.5182
C 8.6619 1.2054 0.3291
C 7.2689 1.2418 0.1617
H 2.6214 2.6859 0.9326
H 1.2072 3.2413 -0.0431
H 2.4098 2.5144 -2.1210
H 3.8474 1.9810 -1.0490
H 4.1768 4.3355 -0.3712
H 2.7468 4.8790 -1.3352
H 5.2640 3.5095 -2.4898
H 4.8777 5.2717 -2.5840
H 3.8325 4.0749 -3.4367
H -0.8039 -2.5588 0.0087
H -3.0080 -1.3882 0.0055
H -3.1084 1.0886 -0.0048
H -1.0172 2.4426 -0.0164
H 1.7656 -2.9547 -0.8966
H 1.7047 -2.9123 0.9035
H 4.1080 -1.8714 0.8970
H 4.1214 -1.8943 -0.8272
H 5.2573 -3.9425 0.0433
H 3.7922 -4.4052 -0.8922
H 3.9569 -4.2435 2.1855
H 4.0192 -5.7578 1.1961
H 2.5281 -4.8206 1.2354
H 6.6435 -2.0165 -0.2376
H 9.0995 -2.1529 -0.0497
H 11.2054 -1.1249 0.4648
H 11.0286 0.2975 1.5420
H 11.3681 0.5404 -0.2167
H 9.2078 2.1182 0.5324
H 6.7384 2.1798 0.2532
