35
 
C -0.2963 -1.1463 0.0004
N -1.2151 -0.0596 -0.0203
C -2.7333 -0.1068 -0.0124
C -0.4124 1.1101 -0.0120
C -0.7148 2.6624 -0.0018
C 0.9073 0.7079 0.0055
C 2.1313 1.5943 -0.0057
N 0.9800 -0.6358 0.0226
C 2.2665 -1.3435 0.0227
Ag -0.5144 -3.4294 -0.0121
N -0.6590 -5.5145 -0.0239
C -0.7687 -5.9920 -1.4322
C 0.5438 -6.1457 0.5155
C -1.8711 -5.9676 0.6508
H -3.1576 -1.1409 -0.0012
H -3.2153 0.3966 -0.8878
H -3.2033 0.3933 0.8823
H -1.7797 2.9044 0.0018
H -0.2641 3.2229 -0.8779
H -0.2637 3.2186 0.8813
H 1.8889 2.6616 -0.0136
H 2.7444 1.3757 -0.9066
H 2.7515 1.3859 0.8889
H 3.1207 -0.6314 0.0177
H 2.3824 -1.9563 -0.8846
H 2.3773 -1.9575 0.9220
H 0.1235 -5.7054 -2.0267
H -1.6587 -5.5731 -1.9304
H -0.8529 -7.1094 -1.4940
H 1.4453 -5.8447 -0.0265
H 0.4604 -7.2588 0.5162
H 0.6366 -5.8336 1.5732
H -2.7665 -5.5286 0.2107
H -1.7897 -5.6502 1.7127
H -1.9472 -7.0796 0.6516
