28
 
C -0.2252 -1.2886 -0.0478
N -1.1558 -0.2293 -0.0519
C -2.6393 -0.1987 -0.0358
C -0.4232 0.9276 -0.0473
Cl -0.9937 2.6118 -0.0219
C 0.8979 0.6080 -0.0347
Cl 2.2305 1.7742 0.0201
N 1.0219 -0.7383 -0.0413
C 2.2922 -1.4243 0.0145
Ag -0.6282 -3.5328 0.0944
N -1.1846 -5.5996 0.2509
C -2.4940 -5.0993 0.6150
N -1.7549 -6.8774 0.3699
C -1.1488 -7.9618 0.2851
C 0.0887 -7.6785 -0.0480
C 0.1066 -6.2510 -0.1027
H -3.0683 -1.2132 -0.0257
H -3.0598 0.3580 -0.9157
H -3.0256 0.3513 0.8594
H 3.1299 -0.6947 0.0336
H 2.3920 -2.0346 -0.8943
H 2.3540 -2.0275 0.9412
H -2.4984 -4.0056 0.6297
H -2.6877 -5.3707 1.6976
H -3.3206 -5.3944 -0.0782
H -1.7088 -8.8841 0.4655
H 0.8086 -8.4808 -0.2388
H 1.0307 -5.7762 -0.4072
