47
 
C 1.0240 -0.6530 -0.0550
N 0.9682 0.5664 -0.4162
C 2.0880 1.2855 -0.9692
C -0.3303 1.1320 -0.1355
C -1.1795 -0.0981 0.2290
N -0.1862 -1.1077 0.5059
C -0.4171 -2.3664 1.1492
C -1.7203 -2.7322 1.5485
C -1.9569 -3.9496 2.1921
C -0.8996 -4.8205 2.4533
C 0.3999 -4.4693 2.0818
C 0.6463 -3.2504 1.4379
Ag 2.7802 -1.8697 -0.2955
P 4.7896 -3.2619 -0.5706
C 4.6816 -5.0735 -0.4055
C 5.2203 -3.1017 -2.3271
C 5.9950 -2.7223 0.7071
C 5.4035 -2.9376 2.1039
C 7.3036 -3.5321 0.5578
C 6.3124 -1.2337 0.4973
H 2.9765 0.6020 -1.0656
H 2.3366 2.1392 -0.3019
H 1.8088 1.6897 -1.9664
H -0.7806 1.6799 -0.9899
H -0.2124 1.8075 0.7414
H -1.7438 -0.4575 -0.6612
H -1.8705 0.1291 1.0675
H -2.5634 -2.0801 1.3682
H -2.9632 -4.2163 2.4902
H -1.0878 -5.7635 2.9513
H 1.2193 -5.1422 2.3000
H 1.6629 -3.0099 1.1987
H 3.9005 -5.4142 -1.1235
H 4.2770 -5.3122 0.6020
H 5.6159 -5.6193 -0.6052
H 4.3993 -3.4774 -2.9693
H 6.1315 -3.7119 -2.5165
H 5.4476 -2.0445 -2.5657
H 5.1732 -4.0087 2.2771
H 4.4685 -2.3491 2.2173
H 6.1266 -2.6142 2.8830
H 7.1336 -4.6179 0.7059
H 8.0547 -3.2166 1.3122
H 7.7483 -3.3881 -0.4518
H 5.3914 -0.6196 0.5808
H 6.7576 -1.0645 -0.5081
H 7.0460 -0.8827 1.2559
