41
 
C 1.0240 -0.6530 -0.0550
N 1.0497 0.6200 -0.1228
C 2.2655 1.4106 -0.2540
C 2.4018 2.3394 0.9657
C 3.5269 0.5187 -0.4127
C -0.2833 1.1625 0.0577
C -1.1924 -0.0700 -0.0459
N -0.2707 -1.1590 0.1523
C -0.6372 -2.5391 0.4220
C -1.5642 -3.0831 -0.6701
C 0.6075 -3.4364 0.5592
Ag 2.7802 -1.8697 -0.2955
N 4.4956 -3.0582 -0.5304
C 4.3746 -4.4084 -0.4084
F 3.1646 -4.9573 -0.1513
C 5.4911 -5.2335 -0.5665
C 6.7331 -4.6568 -0.8353
F 7.8294 -5.4400 -0.9849
C 6.8418 -3.2704 -0.9493
C 5.6995 -2.4799 -0.7997
F 5.8032 -1.1360 -0.9057
H 2.1786 2.0466 -1.1610
H 2.4564 1.7500 1.9063
H 1.5258 3.0220 1.0340
H 3.3059 2.9762 0.8793
H 3.6766 -0.1549 0.4446
H 4.4230 1.1651 -0.5015
H 3.4550 -0.1007 -1.3232
H -0.5633 1.9335 -0.6910
H -0.3408 1.5816 1.0869
H -1.5751 -0.1634 -1.0886
H -2.0349 -0.0328 0.6751
H -1.1946 -2.5544 1.3873
H -1.0402 -3.0881 -1.6486
H -2.4810 -2.4613 -0.7543
H -1.8809 -4.1186 -0.4204
H 1.1415 -3.5070 -0.4032
H 0.2737 -4.4548 0.8618
H 1.2820 -3.0516 1.3493
H 5.3933 -6.3081 -0.4814
H 7.8010 -2.8113 -1.1519
