61
 
C 1.0240 -0.6530 -0.0550
N 1.0338 0.6633 -0.1057
C 2.1418 1.6405 -0.2507
C 3.4046 1.3639 -0.8957
C 3.7298 0.0757 -1.5817
C 4.4188 2.3664 -0.9828
C 4.2253 3.6488 -0.4669
C 5.2427 4.7603 -0.5477
C 3.0329 3.9385 0.1437
C 2.0060 2.9964 0.2653
C 0.8146 3.5483 0.9990
C -0.3351 1.1017 0.0527
C -1.1645 -0.1204 -0.1729
N -0.2739 -1.1829 0.1580
C -0.6301 -2.5528 0.4073
C -1.8371 -3.1332 -0.1313
C -2.9243 -2.4611 -0.9593
C -2.1046 -4.4882 0.0928
C -1.2616 -5.2865 0.8522
C -1.5790 -6.7326 1.0734
C -0.1316 -4.7311 1.4346
C 0.1993 -3.3817 1.2457
C 1.3871 -2.8863 2.0550
Ag 2.7802 -1.8697 -0.2955
N 4.4956 -3.0582 -0.5304
C 5.1474 -3.5610 0.5550
C 6.3416 -4.2748 0.3900
C 6.8593 -4.4567 -0.8942
F 8.0259 -5.1261 -1.0722
C 6.1771 -3.9355 -1.9938
C 4.9854 -3.2335 -1.7889
H 2.8301 -0.4782 -1.8635
H 4.4399 -0.4916 -0.9462
H 4.1880 0.3179 -2.5747
H 5.3612 2.1617 -1.4825
H 6.1758 4.4572 -1.0603
H 5.4928 5.1103 0.4793
H 4.8022 5.6258 -1.0947
H 2.9094 4.9434 0.5363
H 0.9438 4.5933 1.3468
H 0.6584 2.9535 1.9182
H -0.0583 3.6065 0.3273
H -0.6435 1.8531 -0.7086
H -0.5017 1.4054 1.1007
H -1.3185 -0.1569 -1.2742
H -2.0862 -0.0706 0.4492
H -2.9231 -1.3929 -1.1461
H -3.8995 -2.6102 -0.4493
H -2.9593 -2.9271 -1.9633
H -3.0005 -4.9279 -0.3308
H -2.5119 -7.0291 0.5486
H -1.7087 -6.9226 2.1591
H -0.7447 -7.3531 0.6858
H 0.4864 -5.3642 2.0615
H 1.8753 -3.7051 2.6279
H 1.0577 -2.1206 2.7860
H 2.1975 -2.4625 1.4848
H 4.7520 -3.3969 1.5477
H 6.8697 -4.6708 1.2479
H 6.5751 -4.0620 -2.9929
H 4.4600 -2.8054 -2.6320
