62
 
C 1.0240 -0.6530 -0.0550
N 1.0732 0.6573 -0.1101
C 2.2282 1.5691 -0.2784
C 3.4787 1.2081 -0.9184
C 3.7777 -0.0681 -1.6375
C 4.5550 2.1249 -0.9849
C 4.4448 3.4142 -0.4881
C 5.5589 4.4163 -0.5617
C 3.2607 3.8089 0.0801
C 2.1662 2.9444 0.1995
C 0.9930 3.6003 0.8783
C -0.2762 1.1463 0.0590
C -1.1486 -0.0550 -0.1452
N -0.2884 -1.1508 0.1619
C -0.6829 -2.5171 0.3909
C -1.8713 -3.0659 -0.2059
C -2.9129 -2.3394 -1.0373
C -2.1502 -4.4283 -0.0589
C -1.3484 -5.2647 0.7037
C -1.6850 -6.7219 0.8219
C -0.2488 -4.7349 1.3716
C 0.0993 -3.3776 1.2393
C 1.2543 -2.8956 2.0983
Ag 2.7802 -1.8697 -0.2955
N 4.4956 -3.0582 -0.5304
C 3.6220 -4.2414 -0.6502
N 5.3839 -3.1701 0.5099
C 6.4761 -3.7231 0.1132
C 6.4653 -3.8770 -1.2660
C 5.2658 -3.3278 -1.6910
H 2.8794 -0.6494 -1.8914
H 4.5604 -0.6146 -1.0704
H 4.1994 0.1619 -2.6408
H 5.4888 1.8405 -1.4609
H 6.4678 4.0005 -1.0395
H 5.8120 4.7526 0.4675
H 5.2168 5.3003 -1.1439
H 3.2041 4.8294 0.4443
H 1.1821 4.6523 1.1781
H 0.7727 3.0655 1.8193
H 0.1411 3.6793 0.1807
H -0.5733 1.8952 -0.7073
H -0.4139 1.4822 1.1028
H -1.3410 -0.1001 -1.2405
H -2.0478 0.0279 0.5054
H -3.0121 -1.2602 -0.9673
H -3.9184 -2.6247 -0.6646
H -2.8106 -2.6240 -2.1018
H -3.0257 -4.8429 -0.5451
H -2.5774 -6.9828 0.2120
H -1.8954 -6.9825 1.8792
H -0.8304 -7.3258 0.4525
H 0.3348 -5.3937 2.0062
H 1.7229 -3.7271 2.6717
H 0.8862 -2.1589 2.8433
H 2.0662 -2.4340 1.5382
H 2.8066 -4.1597 0.0923
H 4.1332 -5.2190 -0.4831
H 3.0415 -4.2479 -1.6112
H 7.2847 -4.0023 0.7757
H 7.2285 -4.3282 -1.8886
H 4.9218 -3.2980 -2.7201
