75
 
C 2.4131 0.1231 -0.0191
N 1.5547 1.1948 -0.0258
C 2.0040 2.5671 0.0253
C 2.8025 2.7817 -1.2356
C 3.4015 4.1549 -1.3099
C 4.1811 4.2632 -2.6101
C 0.2846 0.7054 -0.0362
C 0.3628 -0.6631 -0.0445
C -0.8290 -1.4425 -0.0121
C -2.0842 -0.7802 0.0013
C -2.1469 0.6221 0.0006
C -0.9661 1.3821 -0.0094
N 1.6935 -1.0413 -0.0641
C 2.2083 -2.4233 -0.0060
C 2.2561 -2.9110 1.4035
C 1.3734 -3.9224 1.7236
C 1.0146 -4.1298 3.0341
C 1.8065 -3.6093 4.0380
C 2.9145 -2.8104 3.7204
C 3.0811 -2.3745 2.3972
Ag 4.5875 0.3631 0.4066
P 7.0647 0.5295 0.8829
C 7.7860 1.3178 -0.5769
C 6.9065 1.5447 -1.6649
C 7.4097 1.9383 -2.9109
C 8.7749 2.1970 -3.0477
C 9.6269 2.0511 -1.9488
C 9.1407 1.5678 -0.7376
C 7.2713 1.9593 2.1649
C 6.1201 2.5586 2.7005
C 6.1717 3.7163 3.4962
C 7.3871 4.3108 3.8218
C 8.5543 3.6314 3.5094
C 8.5084 2.4409 2.7398
C 7.5273 -1.2441 1.0538
C 6.4804 -2.1171 0.7951
C 6.6643 -3.4940 0.9904
C 7.8400 -3.9899 1.5604
C 8.8760 -3.1082 1.8302
O 9.8968 -3.5323 2.3553
N 8.7433 -1.7638 1.5093
H 2.6549 2.6956 0.9162
H 1.1539 3.2824 0.0762
H 2.1207 2.6269 -2.1027
H 3.6354 2.0446 -1.2455
H 4.0805 4.2989 -0.4412
H 2.5830 4.9041 -1.2887
H 4.9870 3.4997 -2.6370
H 4.6267 5.2705 -2.6802
H 3.5049 4.0903 -3.4769
H -0.8264 -2.5228 -0.0019
H -3.0203 -1.3365 0.0091
H -3.1123 1.1261 0.0085
H -1.0849 2.4564 0.0043
H 3.2009 -2.5046 -0.4471
H 1.4767 -3.0593 -0.5717
H 0.9434 -4.5115 0.9341
H 0.1578 -4.7398 3.2591
H 1.5726 -3.9160 5.0376
H 3.6001 -2.5096 4.4968
H 3.8549 -1.6723 2.1268
H 5.8394 1.3630 -1.5710
H 6.7507 2.0276 -3.7703
H 9.1830 2.4960 -4.0017
H 10.6796 2.2666 -2.0247
H 9.8309 1.3638 0.0529
H 5.1583 2.1408 2.4875
H 5.2510 4.1683 3.8265
H 7.4305 5.2624 4.3522
H 9.4970 4.0541 3.8516
H 9.4646 1.9666 2.6062
H 5.5333 -1.6975 0.4327
H 5.8826 -4.1822 0.7265
H 7.9606 -5.0492 1.7848
H 9.6052 -1.1981 1.6852
