40
 
N -1.3993 -0.0529 -0.0778
C -0.6186 0.2845 -1.1541
C 0.7639 0.0932 -1.1393
C 1.3780 -0.1934 0.0380
F 2.7126 -0.3789 0.0573
C 0.6140 -0.2751 1.1888
C -0.7815 -0.3397 1.0969
Ag -3.4673 -0.1756 -0.2488
P -5.8676 -0.3069 -0.5089
N -6.6537 1.2883 -0.7555
C -6.3838 2.2135 0.3453
C -6.1026 1.9207 -1.9478
N -6.2766 -1.1755 -2.0405
C -5.7773 -2.5591 -2.0087
C -7.7259 -1.2975 -2.1936
N -6.6318 -1.0594 0.8925
C -6.1257 -2.4134 1.0491
C -6.3915 -0.3875 2.1237
H -1.0486 0.6804 -2.0404
H 1.3704 0.1864 -2.0132
H 1.1011 -0.3274 2.1266
H -1.3628 -0.6138 1.9532
H -6.8266 1.9799 1.1801
H -6.7813 3.1794 0.2384
H -5.4259 2.4392 0.5191
H -6.2151 1.2985 -2.8223
H -5.1175 2.1997 -1.8533
H -6.4622 2.9247 -2.1093
H -4.7959 -2.6697 -1.9405
H -5.9835 -3.1721 -2.8288
H -6.1976 -3.1925 -1.4419
H -8.1381 -0.2986 -2.3008
H -8.1936 -1.7970 -1.3344
H -7.9670 -1.8771 -3.1011
H -6.2697 -3.0050 0.2864
H -6.5024 -2.9285 1.8975
H -5.1471 -2.4436 1.3143
H -6.8240 0.4812 2.2064
H -5.4354 -0.3171 2.3980
H -6.7967 -0.8306 2.9833
