26
 
N -1.3900 -0.0946 -0.0563
C -0.6841 -1.0633 0.6694
C 0.6390 -0.8339 1.0604
F 1.2329 -1.6094 1.9652
C 1.3048 0.1710 0.5249
C 0.6916 0.9751 -0.4326
C -0.7034 0.9229 -0.6057
Ag -3.4749 -0.2068 -0.2721
N -5.5581 -0.3006 -0.5122
C -6.3735 -0.8574 0.4895
C -7.7036 -1.1938 0.2117
C -8.2790 -0.7310 -0.8853
C -9.7087 -1.0933 -1.1938
C -7.5454 0.0910 -1.7432
C -6.1457 0.1676 -1.6240
H -1.1403 -1.9696 0.9207
H 2.2836 0.3474 0.8200
H 1.2685 1.6185 -1.0122
H -1.2010 1.6634 -1.1448
H -5.9897 -1.0473 1.4416
H -8.2525 -1.7946 0.8550
H -10.1044 -1.7328 -0.4238
H -9.7523 -1.6133 -2.1369
H -10.3034 -0.2019 -1.2544
H -8.0406 0.6333 -2.4806
H -5.5697 0.5982 -2.3774
