57
 
P 0.9469 0.0845 -0.0061
O -0.4245 -0.0552 -0.9965
C -0.0940 0.6392 -2.1995
O 0.5797 -1.2914 0.9338
C 1.2657 -1.2073 2.1565
O 0.6068 1.7433 0.2578
C 1.3133 2.2380 1.3528
Ag 3.4069 0.0845 -0.0061
C 5.5569 0.0845 -0.0061
N 6.3295 -1.0283 -0.0433
C 5.8364 -2.4044 -0.0475
C 4.8873 -2.6660 -1.2199
C 5.5672 -2.5205 -2.5844
C 4.5648 -2.8082 -3.6992
C 7.6100 -0.5779 -0.0336
C 7.6063 0.7897 0.0227
C 8.7916 1.5370 0.0582
C 10.0082 0.8494 0.0257
C 10.0232 -0.5579 -0.0242
C 8.8167 -1.2912 -0.0508
N 6.3366 1.2386 0.0558
C 6.0007 2.6919 0.1742
C 6.4922 3.4872 -1.0423
C 5.9703 3.1026 -2.2748
C 6.3829 3.7096 -3.4583
C 7.3302 4.7321 -3.4376
C 7.8525 5.1700 -2.2180
C 7.4375 4.5604 -1.0134
H -0.6105 0.1868 -3.0679
H 0.9923 0.6162 -2.4853
H -0.4032 1.7043 -2.1192
H 0.8944 -2.0186 2.8161
H 1.0360 -0.2840 2.7160
H 2.3581 -1.3499 2.0126
H 1.0332 3.3086 1.4559
H 2.4084 2.1824 1.1759
H 0.9772 1.7817 2.2996
H 5.2693 -2.5688 0.8944
H 6.6767 -3.1284 -0.0683
H 4.0279 -1.9641 -1.1574
H 4.4953 -3.7009 -1.1191
H 6.4141 -3.2370 -2.6602
H 5.9604 -1.4881 -2.7103
H 4.1665 -3.8410 -3.5995
H 5.0569 -2.7097 -4.6886
H 3.7185 -2.0894 -3.6477
H 8.7964 2.6141 0.1112
H 10.9360 1.4095 0.0457
H 10.9750 -1.0711 -0.0380
H 8.8434 -2.3691 -0.0816
H 6.4778 3.0985 1.0988
H 4.9050 2.8304 0.2777
H 5.2410 2.3087 -2.3075
H 5.9664 3.3707 -4.3941
H 7.6527 5.1813 -4.3706
H 8.5840 5.9753 -2.2249
H 7.8771 4.9276 -0.0905
