32
 
N -1.3994 -0.0796 -0.0817
C -0.5616 -0.3980 -1.1364
C 0.8092 -0.6050 -0.9511
F 1.5856 -1.1613 -1.8909
C 1.3593 -0.2327 0.2129
C 0.5683 0.3643 1.1787
C -0.8261 0.3083 1.0826
Ag -3.4720 -0.1832 -0.2706
P -5.8862 -0.3282 -0.5468
N -6.6030 1.3165 -0.7076
C -6.0573 2.0254 -1.8502
C -8.0496 1.2058 -0.8220
O -6.2967 -1.1889 -1.9842
C -5.7890 -2.4949 -1.8957
O -6.6094 -1.0463 0.8499
C -6.3392 -0.3232 2.0017
H -0.9416 -0.5008 -2.1215
H 2.3862 -0.3888 0.3595
H 1.0266 0.8377 1.9971
H -1.4347 0.5547 1.9070
H -4.9918 2.0864 -1.8065
H -6.5028 2.9862 -1.9785
H -6.3543 1.6772 -2.6893
H -8.4609 0.7162 0.0559
H -8.3093 0.6230 -1.7001
H -8.5040 2.1898 -0.9116
H -6.0595 -3.0573 -2.7920
H -6.1957 -3.0087 -1.0347
H -4.7100 -2.4660 -1.8241
H -6.7509 -0.7882 2.8792
H -6.6413 0.6996 1.9335
H -5.4405 -0.4065 2.2717
