29
 
N -1.4011 -0.1271 -0.0436
C -0.7300 1.0773 0.2041
C 0.6605 1.1631 0.0676
C 1.3719 0.0520 -0.0089
C 0.7317 -1.1806 0.0581
C -0.6628 -1.2575 -0.1118
Ag -3.4735 -0.1983 -0.2766
N -5.5510 -0.2837 -0.5115
C -6.1658 -1.4681 -0.5249
C -5.3732 -2.7417 -0.3809
C -7.5458 -1.4834 -0.6581
C -8.2369 -0.3208 -0.2894
C -7.6115 0.8846 -0.5387
C -6.2745 0.8918 -0.6536
C -5.5669 2.1901 -0.9305
H -1.2663 1.9341 0.4702
H 1.1453 2.0810 0.0315
H 2.4040 0.1147 -0.1112
H 1.2923 -2.0449 0.2184
H -1.1275 -2.1773 -0.2804
H -4.3241 -2.5149 -0.2774
H -5.5200 -3.3609 -1.2454
H -5.7018 -3.2790 0.4980
H -8.0437 -2.3328 -1.0075
H -9.1914 -0.3593 0.1398
H -8.1487 1.7705 -0.6356
H -6.2771 2.9973 -1.0123
H -5.0221 2.1103 -1.8584
H -4.8781 2.4047 -0.1345
