29
 
N -0.6590 -1.2280 -0.0510
C -1.4338 -0.1276 -0.0371
C -2.9025 -0.3379 -0.1750
C -0.8316 1.1409 0.0366
C 0.5684 1.2281 0.0808
C 1.3403 0.0640 0.0541
C 0.6972 -1.1702 -0.0111
Ag -1.5756 -3.1044 -0.2726
N -2.4923 -4.9807 -0.4941
C -3.8202 -5.0094 -0.7845
C -4.4922 -6.2331 -0.9110
C -5.9241 -6.2914 -1.3581
C -3.7929 -7.4127 -0.6299
C -2.4324 -7.3583 -0.3151
C -1.7796 -6.1206 -0.2975
H -3.1074 -1.4524 -0.2649
H -3.2448 0.1741 -1.1003
H -3.4284 0.1002 0.6982
H -1.4256 2.0451 0.0338
H 1.0593 2.1923 0.1188
H 2.4224 0.1135 0.0693
H 1.2714 -2.0871 -0.0527
H -4.3344 -4.0740 -0.9674
H -6.3031 -5.2859 -1.6417
H -6.5682 -6.7159 -0.5633
H -5.9905 -6.9371 -2.2624
H -4.2974 -8.3705 -0.6712
H -1.8918 -8.2674 -0.0861
H -0.7311 -6.0616 -0.0379
