34
 
N -0.6590 -1.2280 -0.0510
C -1.4218 -0.1218 -0.1409
C -2.8839 -0.3245 -0.3420
C -0.8150 1.1446 -0.0750
C 0.5784 1.2248 0.0663
C 1.3381 0.0558 0.1561
C 0.6895 -1.1769 0.1030
Ag -1.5756 -3.1044 -0.2726
N -2.4923 -4.9807 -0.4941
C -1.9162 -6.1858 -0.4281
N -2.8332 -7.1664 -0.5941
C -2.6016 -8.5911 -0.5996
C -1.3004 -9.1125 -0.4474
C -1.0773 -10.4892 -0.5013
C -2.1451 -11.3651 -0.6997
C -3.4409 -10.8665 -0.8317
C -3.6706 -9.4920 -0.7813
C -4.0164 -6.5306 -0.7741
C -3.7990 -5.1767 -0.7113
H -3.0947 -1.4393 -0.4026
H -3.1887 0.1728 -1.2873
H -3.4376 0.1343 0.5041
H -1.3997 2.0516 -0.1538
H 1.0739 2.1872 0.0959
H 2.4163 0.1004 0.2506
H 1.2570 -2.0977 0.1479
H -0.8589 -6.3225 -0.2540
H -0.4466 -8.4685 -0.2985
H -0.0717 -10.8743 -0.3963
H -1.9691 -12.4302 -0.7517
H -4.2720 -11.5427 -0.9815
H -4.6875 -9.1484 -0.8942
H -4.9767 -6.9939 -0.9433
H -4.5345 -4.3904 -0.8151
