38
 
P 1.0376 0.0715 -0.0589
O -0.1425 -1.0853 -0.4478
C 0.3942 -1.7611 -1.5985
O 0.4749 0.5541 1.4792
C 0.6810 -0.4739 2.4065
O 0.7279 0.9018 -1.5216
C 1.2362 2.1919 -1.4370
Ag 3.4976 0.0715 -0.0589
C 5.6476 0.0715 -0.0589
N 6.4312 1.1654 -0.0534
C 5.9849 2.5554 -0.0382
C 5.1497 2.8433 -1.2706
C 7.6998 0.7094 -0.0601
C 7.6575 -0.6760 -0.0651
N 6.3613 -1.0534 -0.0640
C 5.7964 -2.3957 -0.0646
C 4.2426 -2.3495 -0.0866
H 0.0935 -2.8247 -1.6435
H 1.5190 -1.8038 -1.6665
H 0.0392 -1.2570 -2.5233
H 0.3524 -0.0919 3.3972
H 1.7583 -0.7264 2.5012
H 0.0448 -1.3563 2.1816
H 1.0791 2.6792 -2.4228
H 2.3101 2.1361 -1.2725
H 0.7295 2.7989 -0.6587
H 6.8539 3.2470 -0.0196
H 5.3674 2.7284 0.8701
H 5.7431 2.6950 -2.1967
H 4.7586 3.8833 -1.2439
H 4.3215 2.1225 -1.2696
H 8.5844 1.3337 -0.0604
H 8.5070 -1.3464 -0.0696
H 6.1532 -2.9299 0.8438
H 6.1759 -2.9437 -0.9555
H 3.8305 -1.8266 0.7869
H 3.8813 -3.3980 -0.0749
H 3.8612 -1.8347 -0.9800
