61
 
N -1.4069 -0.0739 -0.0743
C -0.5912 0.2557 -1.1018
C 0.7905 0.0595 -1.0340
C 1.3786 -0.1902 0.1756
C 2.8486 -0.4116 0.2582
C 0.5670 -0.2308 1.2980
C -0.8268 -0.3146 1.1545
Ag -3.4628 -0.1943 -0.2892
P -5.8987 -0.3290 -0.5049
C -6.6075 1.3650 -0.7113
C -6.0014 2.0959 -1.8708
C -8.0880 1.3873 -0.7672
C -6.1976 2.2073 0.4917
C -6.3016 -1.2507 -2.0698
C -5.7494 -2.6635 -1.9287
C -7.7948 -1.4407 -2.2113
C -5.6964 -0.6819 -3.2716
C -6.5770 -1.0894 0.9534
C -5.7342 -1.5057 1.9334
C -6.1691 -2.2889 2.9826
C -7.5074 -2.4856 3.2133
N -7.9555 -3.2888 4.3073
C -7.1896 -3.4289 5.5281
C -9.1889 -4.0413 4.1972
C -8.3845 -1.8673 2.3308
C -7.9356 -1.3374 1.1432
H -0.9823 0.6068 -2.0265
H 1.4310 0.1114 -1.8988
H 3.3245 -0.3686 -0.7380
H 3.0425 -1.4191 0.6707
H 3.3115 0.3322 0.9043
H 1.0149 -0.2412 2.2584
H -1.4432 -0.5319 2.0047
H -6.3382 1.7632 -2.7515
H -4.9098 2.0906 -1.8732
H -6.4035 3.0797 -2.0394
H -8.4338 1.0116 -1.6403
H -8.5053 2.3614 -0.9135
H -8.5465 0.8693 0.0453
H -5.1137 2.2521 0.5978
H -6.5695 1.8073 1.4161
H -6.6078 3.2233 0.4152
H -6.1980 -3.1827 -1.0788
H -4.6634 -2.6214 -1.8083
H -5.9948 -3.2567 -2.8211
H -8.2736 -1.8577 -1.3426
H -8.0797 -1.9585 -3.1059
H -8.2596 -0.5749 -2.4725
H -4.6300 -0.5276 -3.1613
H -6.1412 0.1620 -3.5561
H -5.9631 -1.1918 -4.1753
H -4.7110 -1.2411 1.9046
H -5.4482 -2.7163 3.6168
H -6.2752 -2.8376 5.5358
H -6.8760 -4.4589 5.7054
H -7.7675 -3.0649 6.3885
H -9.6751 -3.9034 3.2288
H -9.9017 -3.7337 4.9602
H -9.0069 -5.1258 4.2801
H -9.4162 -1.8045 2.5381
H -8.6632 -1.0915 0.4348
