32
 
N -1.4289 -0.0517 -0.0962
C -0.8154 0.7273 0.8540
C 0.5721 0.9702 0.7957
C 1.3714 0.2164 -0.0396
Cl 3.1017 0.5332 -0.1230
C 0.7776 -0.7756 -0.8034
C -0.6302 -0.8109 -0.9136
Ag -3.5036 -0.2159 -0.2579
N -5.5905 -0.4159 -0.4630
C -5.7399 -1.4372 0.5236
C -6.4283 0.6136 0.2304
C -6.0688 -1.2716 -1.5946
C -5.1188 -1.9351 -2.4897
C -5.4477 -2.4644 -3.6604
C -6.7477 -2.6893 -3.8820
C -7.7185 -2.4000 -2.9052
C -7.4189 -1.5985 -1.7983
H -1.3864 1.2511 1.5888
H 1.0409 1.7395 1.3899
H 1.4088 -1.4742 -1.3326
H -1.0694 -1.5196 -1.5962
H -5.5112 -1.2882 1.5525
H -4.8526 -2.0552 0.2614
H -6.8634 -1.7553 0.5099
H -5.7879 1.2023 0.9287
H -7.2293 0.2254 0.9341
H -7.0098 1.2537 -0.4349
H -4.0467 -2.0753 -2.3787
H -4.6159 -2.6835 -4.3153
H -6.9337 -3.1466 -4.8053
H -8.6936 -2.7642 -3.0604
H -8.1806 -1.2628 -1.1034
