37
 
P 1.0476 0.0441 0.0761
O -0.1154 0.6137 1.1710
C 0.4163 0.2729 2.4604
O 0.5637 0.9491 -1.2854
C 1.1563 0.3695 -2.4270
O 0.7135 -1.5803 0.5068
C 1.3122 -2.4586 -0.3943
Ag 3.5076 0.0441 0.0761
P 5.9676 0.0441 0.0761
N 6.8796 -0.8217 -1.1734
C 6.5198 -0.3982 -2.5420
C 8.3042 -0.9459 -0.9493
O 6.4943 1.6251 -0.2832
C 6.1300 2.4511 0.7991
O 6.2782 -1.0896 1.3137
C 5.9003 -0.5230 2.5465
H 0.1090 0.9943 3.2410
H 1.5416 0.2574 2.5390
H 0.0542 -0.7357 2.7568
H 0.6964 0.8126 -3.3339
H 0.9520 -0.7120 -2.5382
H 2.2478 0.5723 -2.4502
H 1.1691 -3.4833 0.0066
H 2.4049 -2.2742 -0.4704
H 0.7806 -2.4599 -1.3631
H 5.4176 -0.2687 -2.6566
H 6.8077 -1.1901 -3.2702
H 7.0295 0.5445 -2.8313
H 8.4689 -1.4519 0.0222
H 8.7844 0.0491 -0.9758
H 8.7301 -1.6077 -1.7368
H 6.6363 3.4317 0.6854
H 6.4810 2.0680 1.7816
H 5.0336 2.6315 0.8049
H 5.7718 -1.3449 3.2803
H 4.9177 0.0037 2.5000
H 6.7023 0.1342 2.9488
