26
 
N -1.4103 -0.0816 -0.0540
C -0.7721 1.1293 0.1186
C 0.6257 1.2350 -0.0332
C 1.3279 2.5473 -0.1850
C 1.3714 0.0841 -0.0434
C 0.7367 -1.1365 0.0859
C -0.6531 -1.2081 -0.0693
Ag -3.4729 -0.1945 -0.2681
N -5.5192 -0.3467 -0.4815
C -6.1189 -1.5714 -0.5128
F -5.4053 -2.6990 -0.3731
C -7.4931 -1.7009 -0.6192
C -8.2823 -0.5892 -0.7294
F -9.6134 -0.7474 -0.8478
C -7.7012 0.6631 -0.7174
C -6.3112 0.7787 -0.5674
F -5.7588 2.0118 -0.5940
H -1.3189 2.0278 0.2504
H 0.5958 3.3634 -0.1767
H 1.8713 2.5867 -1.1567
H 2.0604 2.7017 0.6205
H 2.4399 0.1565 -0.1261
H 1.3276 -2.0125 0.2491
H -1.1270 -2.1710 -0.1316
H -7.9475 -2.6649 -0.6193
H -8.3314 1.5233 -0.8192
