42
 
O -0.3280 -1.0820 0.0030
C 0.8921 -0.6594 -0.2148
C 0.8879 0.7208 -0.1529
C -0.4136 1.0933 0.1290
C -1.1398 -0.0762 0.2108
Ag -0.9157 -3.0459 0.0160
P -1.6210 -5.4026 0.0316
N -1.5872 -6.2757 -1.5179
C -2.3135 -5.4758 -2.5133
C -0.1676 -6.3231 -1.9934
O -3.1533 -5.0693 0.5511
C -3.1787 -4.9572 1.9194
C -3.4270 -3.7138 2.5450
C -3.4380 -3.5984 3.9487
C -3.2250 -4.7182 4.7498
C -2.9757 -5.9520 4.1563
C -2.9197 -6.0861 2.7481
C -2.5906 -7.4292 2.1940
C -3.3482 -8.5133 2.6739
C -3.1204 -9.8043 2.2091
C -2.0926 -10.0476 1.3022
C -1.3051 -8.9970 0.8323
C -1.5527 -7.6803 1.2311
O -0.8006 -6.7138 0.6381
H 1.7409 -1.2963 -0.4238
H 1.7325 1.3810 -0.2968
H -0.7894 2.0995 0.2583
H -2.1967 -0.1702 0.4229
H -3.3904 -5.4511 -2.2701
H -2.1932 -5.9189 -3.5286
H -1.9230 -4.4290 -2.5628
H 0.5401 -6.7507 -1.2506
H 0.2345 -5.3125 -2.2565
H -0.0752 -6.9652 -2.8952
H -3.5898 -2.8252 1.9522
H -3.6120 -2.6410 4.4278
H -3.2389 -4.6319 5.8337
H -2.7916 -6.8025 4.8063
H -4.1508 -8.3517 3.3857
H -3.7450 -10.6171 2.5551
H -1.9143 -11.0531 0.9497
H -0.5169 -9.2004 0.1196
