31
 
N -0.6590 -1.2280 -0.0510
C 0.3566 -1.0787 0.8308
O 0.7665 -2.1414 1.5623
C 0.2370 -3.4159 1.4150
C 0.8869 0.2047 1.0506
C 0.3851 1.2907 0.3178
C -0.6451 1.0923 -0.6021
C -1.1785 -0.1852 -0.7494
Ag -1.5756 -3.1044 -0.2726
N -2.4923 -4.9807 -0.4941
C -3.7399 -5.1525 0.0076
C -4.3050 -6.4269 0.0371
C -3.6216 -7.5070 -0.5556
O -4.1284 -8.7663 -0.5681
C -5.2603 -9.1634 0.1146
C -2.3667 -7.2786 -1.1317
C -1.7905 -6.0106 -1.0347
H 0.7032 -4.0751 2.1757
H 0.4494 -3.8077 0.4066
H -0.8468 -3.4329 1.5760
H 1.6593 0.3712 1.7897
H 0.7808 2.2877 0.4664
H -1.0378 1.9173 -1.1845
H -1.9837 -0.3644 -1.4508
H -4.2400 -4.3292 0.5000
H -5.2561 -6.5614 0.5323
H -5.4504 -10.2385 -0.0740
H -6.1417 -8.5809 -0.2267
H -5.1103 -9.0152 1.2070
H -1.8268 -8.0797 -1.6225
H -0.8112 -5.8227 -1.4568
