23
 
O -0.3280 -1.0820 0.0030
C 0.8666 -0.6536 -0.3195
C 0.8738 0.7239 -0.2150
C -0.3966 1.0895 0.1906
C -1.1134 -0.0821 0.3151
Ag -0.9157 -3.0459 0.0160
N -1.5178 -5.0577 0.0293
C -0.4207 -5.8404 0.6220
C -2.8232 -5.1736 0.6822
C -1.5469 -5.5192 -1.3703
H 1.6930 -1.2856 -0.6154
H 1.7054 1.3868 -0.4123
H -0.7584 2.0926 0.3729
H -2.1487 -0.1805 0.6133
H -0.2775 -5.5006 1.6715
H 0.5471 -5.6788 0.1007
H -0.6758 -6.9239 0.6684
H -2.7321 -4.7984 1.7258
H -3.1632 -6.2306 0.7220
H -3.5746 -4.5389 0.1684
H -0.5693 -5.3765 -1.8794
H -2.2989 -4.9296 -1.9370
H -1.8526 -6.5906 -1.4302
