38
 
N -1.4001 -0.1085 -0.0587
C -0.6378 0.8742 -0.7344
C 0.7640 0.7635 -0.8271
O 1.4965 1.5445 -1.7305
C 0.8375 2.4632 -2.5745
C 1.3796 -0.0988 -0.0385
C 0.6500 -0.8653 0.8690
C -0.7496 -0.9650 0.7415
Ag -3.4699 -0.2095 -0.2737
P -5.9113 -0.3085 -0.5436
C -6.5916 1.3826 -0.7166
C -6.3243 -1.2661 -2.0496
C -6.6561 -1.1141 0.9175
C -6.3173 -0.3097 2.1595
C -8.1637 -1.1802 0.7541
C -6.1003 -2.5191 1.0581
H -1.1075 1.6871 -1.1910
H 1.5478 2.9712 -3.1987
H 0.3112 3.1880 -1.9775
H 0.1301 1.9423 -3.1965
H 2.4096 -0.1922 -0.1016
H 1.1425 -1.3705 1.6321
H -1.2807 -1.6907 1.2596
H -6.1545 1.8625 -1.5723
H -6.3485 1.9542 0.1661
H -7.6536 1.3428 -0.8299
H -5.8938 -0.7975 -2.9088
H -7.3928 -1.3175 -2.1663
H -5.9351 -2.2654 -1.9537
H -6.7098 0.6850 2.0634
H -5.2513 -0.2614 2.2781
H -6.7497 -0.7799 3.0231
H -8.5597 -0.1873 0.6551
H -8.5996 -1.6522 1.6148
H -8.4064 -1.7490 -0.1234
H -5.0337 -2.4750 1.1744
H -6.3390 -3.0906 0.1811
H -6.5322 -2.9937 1.9194
