22
 
O -0.3280 -1.0820 0.0030
C 0.9110 -0.6647 -0.0709
C 0.9023 0.7167 -0.0618
C -0.4243 1.0964 0.0288
C -1.1576 -0.0710 0.0632
Ag -0.9157 -3.0459 0.0160
N -1.5178 -5.0577 0.0293
C -2.3225 -4.7674 1.2321
N -0.6012 -6.0522 0.2581
C -1.1205 -7.2032 0.0094
C -2.3784 -7.0527 -0.5638
C -2.5751 -5.6826 -0.6796
H 1.7786 -1.3069 -0.1384
H 1.7603 1.3730 -0.1159
H -0.8117 2.1059 0.0643
H -2.2336 -0.1593 0.1349
H -1.6776 -4.2538 1.9751
H -2.7755 -5.6504 1.7468
H -3.1168 -4.0068 1.0024
H -0.6232 -8.1426 0.2119
H -3.0690 -7.8339 -0.8571
H -3.4702 -5.2075 -1.0686
