55
 
N -0.6790 1.1930 0.0010
C -1.4235 0.0686 0.1067
C -2.8961 0.2231 0.1764
C -0.8105 -1.1883 0.0916
C 0.5858 -1.2669 -0.0090
C 1.2797 -2.5974 -0.0156
C 1.3352 -0.0840 -0.1029
C 0.6744 1.1555 -0.1074
C 1.4303 2.4458 -0.1654
Ag -1.6914 3.0329 0.0055
P -2.8773 5.1881 0.0107
C -2.6618 6.3696 1.3856
C -1.5688 7.2557 1.4591
C -1.3457 8.0124 2.6210
C -2.1962 7.8855 3.7226
C -3.2637 6.9953 3.6737
C -3.4840 6.2363 2.5279
C -2.1496 5.9689 -1.4386
C -3.0210 6.4656 -2.4339
C -2.5176 6.9351 -3.6502
C -1.1432 6.9061 -3.8850
C -0.2736 6.4381 -2.8914
C -0.7741 5.9728 -1.6669
C -4.6448 4.8609 0.1808
C -5.5515 5.9336 0.1418
C -6.9179 5.6894 0.2722
C -7.3773 4.3819 0.4240
C -6.4550 3.3305 0.4350
O -6.8438 2.1818 0.5527
N -5.1107 3.5947 0.3142
H -3.1037 1.3130 0.1567
H -3.2890 -0.2309 1.1083
H -3.3657 -0.2646 -0.7057
H -1.4128 -2.0868 0.1539
H 0.5538 -3.4362 0.0486
H 1.9688 -2.6640 0.8523
H 1.8628 -2.7110 -0.9536
H 2.4159 -0.1315 -0.1667
H 2.5273 2.2694 -0.2102
H 1.2096 3.0381 0.7486
H 1.1128 3.0319 -1.0503
H -0.8648 7.3494 0.6472
H -0.4986 8.6829 2.6816
H -2.0182 8.4570 4.6246
H -3.9112 6.8686 4.5327
H -4.2927 5.5216 2.5650
H -4.0957 6.4710 -2.2894
H -3.1923 7.2964 -4.4201
H -0.7552 7.2362 -4.8409
H 0.7887 6.4108 -3.0827
H -0.1025 5.5751 -0.9197
H -5.2008 6.9514 0.0199
H -7.6196 6.5139 0.2556
H -8.4386 4.1914 0.5278
H -4.4257 2.8194 0.3197
