86
 
P 0.9453 -0.0765 -0.0340
N -0.0007 0.2817 1.4624
C 0.3553 -0.7082 2.5482
C 0.5004 1.5276 1.9912
O 0.6776 1.4116 -0.8702
C -0.6861 1.7140 -1.0860
O 0.2480 -1.6520 0.0905
C -0.2955 -2.2382 -1.0552
Ag 3.4053 -0.0765 -0.0340
C 5.5553 -0.0765 -0.0340
N 6.2679 1.1009 0.0926
C 5.9091 2.5534 0.0400
C 4.6218 3.0966 0.4351
C 3.4962 2.3459 1.1763
C 4.0067 1.2362 2.1075
C 2.7969 3.3922 2.1560
C 4.3996 4.5053 0.2838
C 5.3717 5.3913 -0.0312
C 6.6065 4.9332 -0.3412
C 6.8884 3.5496 -0.4089
C 8.2288 3.2439 -1.0697
C 8.2428 3.8652 -2.4812
C 9.4353 3.7433 -0.2573
C 7.4998 0.6712 0.4242
C 7.5548 -0.7035 0.4288
N 6.3407 -1.2254 0.1290
C 6.0352 -2.7105 0.0979
C 6.5566 -3.6569 1.1054
C 7.5000 -3.3448 2.2760
C 6.9553 -3.7650 3.6585
C 8.8337 -4.0795 2.0353
C 6.1994 -5.0340 1.0506
C 5.3975 -5.5514 0.0775
C 4.9378 -4.7342 -0.9040
C 5.2306 -3.3473 -0.9554
C 4.6082 -2.6601 -2.1667
C 4.6510 -3.4699 -3.5179
C 3.1512 -2.4719 -1.8010
H -0.0239 -1.7285 2.3692
H -0.0736 -0.4081 3.5333
H 1.4626 -0.7979 2.7177
H 0.4096 2.3851 1.3076
H 1.5303 1.3313 2.1368
H 0.1588 1.7798 3.0172
H -0.7907 2.1270 -2.1132
H -1.0078 2.5344 -0.4076
H -1.3785 0.8530 -0.9964
H -0.0149 -3.3085 -0.9394
H 0.1104 -1.8437 -1.9990
H -1.4142 -2.2404 -1.0564
H 2.7893 1.9407 0.4377
H 4.8509 1.6196 2.7166
H 4.2460 0.3160 1.6912
H 3.3044 0.7697 2.7959
H 3.5698 3.8397 2.8061
H 2.0443 3.1244 2.9012
H 2.1786 4.1364 1.6152
H 3.4851 5.0271 0.4687
H 5.1445 6.4538 -0.0291
H 7.3276 5.6970 -0.5928
H 8.3458 2.1694 -1.2489
H 8.1161 4.9691 -2.4621
H 7.4068 3.4465 -3.0817
H 9.2033 3.6610 -2.9888
H 9.5078 4.8515 -0.2589
H 10.3644 3.3398 -0.7136
H 9.3881 3.3918 0.7944
H 8.3214 1.3138 0.7002
H 8.4571 -1.2457 0.6663
H 7.7014 -2.2723 2.3577
H 6.7533 -4.8546 3.7346
H 6.0294 -3.2103 3.9052
H 7.7194 -3.5416 4.4356
H 8.6986 -5.1847 2.0198
H 9.5646 -3.8545 2.8383
H 9.2592 -3.7656 1.0605
H 6.5383 -5.7593 1.7775
H 5.1343 -6.6062 0.0669
H 4.3318 -5.2366 -1.6396
H 5.0909 -1.6791 -2.3373
H 4.0206 -4.3911 -3.5149
H 5.6726 -3.7718 -3.8308
H 4.2033 -2.8661 -4.3353
H 2.6893 -3.4594 -1.5588
H 2.5877 -2.0149 -2.6307
H 3.0978 -1.8776 -0.8946
