23
 
N -0.3280 -1.0820 0.0030
C -1.0798 0.0073 -0.2196
O -0.3494 1.1009 -0.1576
C 0.8876 0.7355 0.1106
C 0.9174 -0.6373 0.2136
Ag -0.9301 -3.0938 0.0163
N -1.5321 -5.1056 0.0297
C -0.6359 -6.0812 0.3214
N -1.0026 -7.3853 0.2375
C -2.2584 -7.7399 -0.1556
O -2.6025 -9.0430 -0.2834
C -1.7223 -10.0846 -0.0756
C -3.1944 -6.7438 -0.4482
C -2.8046 -5.4093 -0.3314
H -2.1395 -0.0138 -0.4342
H 1.7263 1.4090 0.2266
H 1.7724 -1.2648 0.4277
H 0.3701 -5.8194 0.6182
H -2.2459 -11.0484 -0.2387
H -1.3369 -10.0558 0.9658
H -0.8721 -10.0162 -0.7891
H -4.1935 -6.9953 -0.7825
H -3.4921 -4.6134 -0.5871
