26
 
P 1.1042 0.0846 0.0295
F -0.3198 -0.7637 0.1991
F 0.8523 1.0897 1.3504
F 0.7992 0.6361 -1.5276
Au 3.4570 0.2509 0.0398
P 5.7692 -0.1561 -0.0921
N 6.7081 -1.5897 -0.4039
C 8.1373 -1.4399 -0.3823
C 8.5421 -0.0112 -0.0630
C 10.0806 0.0222 -0.0552
C 7.9566 0.9242 -1.1826
N 6.4708 0.8611 -1.3447
N 6.4777 0.2400 1.4739
C 7.9624 0.3702 1.3485
H 6.3746 -1.9153 -1.3383
H 8.5376 -1.7612 -1.3690
H 8.5190 -2.1418 0.3881
H 10.4759 -0.3059 -1.0438
H 10.4740 -0.6874 0.7088
H 10.4630 1.0358 0.1665
H 8.4268 0.6553 -2.1554
H 8.2707 1.9697 -0.9623
H 6.1902 0.5258 -2.2899
H 6.2029 -0.4537 2.2019
H 8.4387 -0.2758 2.1210
H 8.2754 1.4140 1.5826
