51
 
P 1.1121 0.6619 0.0162
F -0.4268 1.1186 -0.4339
F 0.6734 -0.9588 0.2308
F 1.0789 1.5809 1.4261
Au 3.5025 0.3629 -0.0253
P 5.8575 0.0652 -0.0136
C 6.6545 -0.8331 1.3160
C 7.3547 -2.0298 1.1316
C 7.8133 -2.7434 2.2377
C 7.5840 -2.2758 3.5478
O 8.0117 -2.9631 4.6388
C 8.6606 -4.1812 4.5803
C 6.8865 -1.0749 3.7262
C 6.4155 -0.3692 2.6192
C 6.3557 -0.6850 -1.5992
C 5.4045 -1.0272 -2.5640
C 5.7915 -1.6854 -3.7338
C 7.1438 -1.9940 -3.9813
O 7.5260 -2.7186 -5.0675
C 6.6393 -3.3189 -5.9432
C 8.1119 -1.5546 -3.0704
C 7.7223 -0.9017 -1.8939
C 6.4034 1.7541 0.2022
C 5.4610 2.7825 0.2727
C 5.9173 4.1155 0.2812
C 7.3011 4.4206 0.2141
O 7.7561 5.7027 0.1519
C 6.9365 6.8130 0.0676
C 8.2264 3.3682 0.1799
C 7.7775 2.0459 0.1692
H 7.5207 -2.4510 0.1539
H 8.3347 -3.6722 2.0634
H 8.9410 -4.5151 5.5982
H 9.5871 -4.0823 3.9755
H 7.9940 -4.9449 4.1213
H 6.6870 -0.6885 4.7189
H 5.8389 0.5343 2.7830
H 4.3587 -0.8040 -2.4133
H 5.0227 -1.9735 -4.4341
H 7.1865 -3.8783 -6.7273
H 6.0179 -2.5407 -6.4310
H 5.9803 -4.0327 -5.3956
H 9.1661 -1.7451 -3.2495
H 8.4989 -0.6055 -1.2030
H 4.3805 2.5219 0.2631
H 5.1906 4.9118 0.3052
H 7.5404 7.7416 0.0208
H 6.2843 6.8612 0.9637
H 6.3080 6.7546 -0.8498
H 9.2943 3.5637 0.1262
H 8.5055 1.2503 0.0947
