70
 
P 1.0762 0.2477 -2.0509
F -0.3422 1.1196 -2.2375
F 1.2456 -0.1908 -3.6594
F 0.3360 -0.7793 -0.9476
Au 3.4513 0.0339 -1.2762
C 5.5393 -0.0390 -0.5492
N 6.2320 1.1352 -0.2019
C 5.9589 2.5835 -0.1257
C 4.6554 3.0644 0.1608
C 3.4571 2.2098 0.3894
C 2.8377 2.4574 1.7777
C 2.4939 2.5383 -0.7321
C 4.4026 4.4419 0.2818
C 5.3950 5.3667 0.2340
C 6.6907 4.9612 0.0066
C 7.0158 3.6000 -0.2278
C 8.4766 3.3340 -0.6626
C 8.7831 4.1268 -1.9346
C 9.5490 3.6375 0.4131
C 7.3749 0.7087 0.3261
C 7.4374 -0.6130 0.2940
N 6.3069 -1.1704 -0.2247
C 6.0260 -2.6537 -0.2255
C 6.7558 -3.6096 0.6503
C 8.0011 -3.3598 1.5355
C 7.6492 -2.8381 2.9353
C 8.9263 -4.5792 1.6659
C 6.2693 -4.9366 0.7803
C 5.1970 -5.4055 0.1092
C 4.5689 -4.6026 -0.7643
C 4.9447 -3.2599 -0.9993
C 4.0147 -2.5675 -1.9729
C 3.5393 -3.4160 -3.2180
C 2.7978 -2.3470 -1.1227
H 3.6657 1.1385 0.4005
H 2.7733 3.5265 2.0486
H 3.4501 1.9569 2.5543
H 1.8062 2.0512 1.8164
H 2.1531 3.5829 -0.7646
H 1.5852 2.0086 -0.4655
H 2.9524 2.2623 -1.7292
H 3.4061 4.8232 0.4573
H 5.1267 6.4047 0.3778
H 7.4325 5.7446 -0.0180
H 8.6149 2.2926 -0.9847
H 8.6715 5.2186 -1.7726
H 8.0804 3.8118 -2.7343
H 9.8236 3.9341 -2.2652
H 9.6746 4.7257 0.5880
H 10.5352 3.2449 0.0701
H 9.3298 3.1418 1.3818
H 8.1418 1.3065 0.7969
H 8.3233 -0.9738 0.7185
H 8.7321 -2.7780 0.9949
H 6.9985 -3.5749 3.4569
H 7.1311 -1.8592 2.8937
H 8.5782 -2.7181 3.5362
H 8.4873 -5.3785 2.2857
H 9.8737 -4.3153 2.1787
H 9.1648 -4.9335 0.6371
H 6.6794 -5.6793 1.4318
H 4.8395 -6.4165 0.2613
H 3.7275 -5.0787 -1.2238
H 4.4646 -1.6370 -2.3643
H 3.0298 -4.3746 -2.9775
H 4.3502 -3.6464 -3.9330
H 2.7326 -2.8804 -3.7653
H 2.3623 -3.2832 -0.7249
H 2.0558 -1.9749 -1.7936
H 3.0515 -1.7081 -0.2501
