47
 
P 0.9591 0.0745 0.0528
C 0.1918 -0.9220 1.4101
C -1.3283 -0.9397 1.4828
C 0.7539 -2.3528 1.3451
C 0.3929 1.8069 0.3004
C 0.8944 2.4357 1.5955
C 0.7952 2.6646 -0.9054
C 0.5094 -0.8346 -1.4583
Au 3.4191 0.0745 0.0528
C 5.5691 0.0745 0.0528
N 6.3409 -0.7161 0.8157
C 5.8783 -1.7192 1.7701
C 5.0248 -1.0729 2.8571
C 7.6153 -0.3919 0.5111
C 7.5904 0.6080 -0.4463
N 6.3025 0.8902 -0.7231
C 5.8019 1.8855 -1.6699
C 4.2781 1.9077 -1.6853
H 0.5659 -0.4961 2.3665
H -1.7719 -1.3396 0.5518
H -1.7136 0.0758 1.7005
H -1.6323 -1.5972 2.3305
H 0.4013 -2.8875 0.4407
H 0.4356 -2.9414 2.2312
H 1.8684 -2.3305 1.3366
H -0.7169 1.7844 0.3230
H 1.9986 2.5495 1.5793
H 0.5903 1.8271 2.4688
H 0.4315 3.4415 1.7092
H 1.8871 2.7333 -0.9894
H 0.4029 3.6984 -0.8074
H 0.3982 2.2328 -1.8494
H -0.5997 -0.8697 -1.5284
H 0.9253 -1.8567 -1.4835
H 0.8821 -0.2674 -2.3360
H 6.7490 -2.2232 2.2437
H 5.2743 -2.4827 1.2341
H 5.6193 -0.3122 3.4064
H 4.6811 -1.8484 3.5730
H 4.1328 -0.5853 2.4087
H 8.4964 -0.8434 0.9481
H 8.4442 1.0918 -0.9030
H 6.1749 1.6516 -2.6894
H 6.1681 2.8905 -1.3697
H 3.8851 0.9192 -2.0094
H 3.9070 2.6772 -2.3904
H 3.9329 2.1553 -0.6640
