49
 
P 1.0840 -0.0538 0.0074
C 0.2942 -1.1579 1.1999
C -1.0835 -1.1977 1.4186
C -1.6126 -2.0312 2.4113
C -0.7714 -2.8298 3.1951
Cl -1.4487 -3.8531 4.4500
C 0.6088 -2.7977 2.9865
C 1.1405 -1.9632 1.9965
C 0.4598 1.5605 0.4701
C 0.8339 2.1968 1.6541
C 0.2575 3.4287 1.9923
C -0.6946 4.0214 1.1513
Cl -1.4548 5.5358 1.6057
C -1.0500 3.3975 -0.0470
C -0.4692 2.1751 -0.3900
C 0.7092 -1.0033 -1.4801
C -0.6244 -1.2281 -1.8878
C -0.8989 -1.8953 -3.0856
C 0.1519 -2.3284 -3.8966
Cl -0.1902 -3.1769 -5.3946
C 1.4757 -2.0753 -3.5157
C 1.7541 -1.4152 -2.3107
Au 3.5440 -0.0538 0.0074
N 5.6440 -0.0538 0.0074
C 6.2852 1.0810 0.3901
C 7.6725 1.1794 0.2667
C 8.3964 0.0943 -0.2478
C 9.8781 0.1934 -0.4637
C 7.7141 -1.0816 -0.5929
C 6.3229 -1.1338 -0.4607
H -1.7437 -0.5679 0.8478
H -2.6790 -2.0443 2.5803
H 1.2663 -3.4090 3.5978
H 2.2182 -1.9437 1.8634
H 1.5579 1.7373 2.3118
H 0.5390 3.9157 2.9150
H -1.7845 3.8493 -0.7047
H -0.7681 1.6985 -1.3170
H -1.4624 -0.8752 -1.3069
H -1.9271 -2.0651 -3.3884
H 2.2884 -2.3843 -4.1577
H 2.7801 -1.2043 -2.0275
H 5.7098 1.9253 0.7463
H 8.1698 2.1011 0.5425
H 10.2616 1.2027 -0.2007
H 10.0999 0.0170 -1.5389
H 10.4105 -0.5642 0.1460
H 8.2500 -1.9335 -0.9930
H 5.7792 -2.0189 -0.7636
