82
 
P 0.9364 0.0413 0.0651
C 0.0992 -0.4398 -1.6181
C -1.3162 -0.5666 -1.8252
C -2.3350 -0.0670 -0.9515
C -1.8855 -1.1749 -2.9275
C -1.1328 -1.6401 -3.9567
C -1.8635 -2.2632 -5.1063
C 0.2510 -1.4870 -3.8954
C 0.8854 -0.9117 -2.7507
C 2.3892 -0.8624 -2.8141
C 0.6900 -1.1462 1.5241
C -0.1116 -2.3433 1.4416
C -0.5964 -2.9942 0.1830
C -0.5070 -3.0285 2.6007
C -0.0860 -2.6452 3.8612
C -0.5626 -3.4084 5.0729
C 0.8100 -1.5855 3.9724
C 1.2154 -0.8321 2.8388
C 2.2388 0.2545 3.1109
C 0.2993 1.7359 0.2946
C -0.8855 1.9796 1.1033
C -1.8151 0.9190 1.7125
C -1.2992 3.2892 1.3358
C -0.5722 4.3678 0.8448
C -1.0074 5.7639 1.1654
C 0.5755 4.1418 0.0753
C 1.0185 2.8355 -0.2018
C 2.2673 2.6193 -1.0050
Au 3.3964 0.0413 0.0651
N 5.4964 0.0413 0.0651
C 6.1646 -0.6286 1.0510
C 5.4173 -1.3668 2.0986
C 7.5627 -0.6298 1.0944
C 8.2877 0.0268 0.1035
C 9.7878 0.0001 0.1277
C 7.5966 0.6929 -0.9133
C 6.1890 0.6983 -0.9152
C 5.4542 1.3890 -2.0154
H -1.8841 0.8391 -0.6474
H -2.7656 -0.8765 -0.3244
H -3.1372 0.4453 -1.5206
H -2.9667 -1.2789 -2.9814
H -2.9661 -2.2881 -4.9232
H -1.5356 -3.3110 -5.2451
H -1.6973 -1.6480 -6.0091
H 0.8290 -1.8496 -4.7391
H 2.7761 -1.2499 -3.7889
H 2.8536 -1.4672 -2.0136
H 2.7154 0.1858 -2.7601
H -0.1949 -2.5303 -0.6908
H -1.7028 -3.0654 0.1709
H -0.1832 -4.0212 0.0817
H -1.1653 -3.8872 2.5187
H -1.2882 -4.2055 4.7939
H -1.0773 -2.7397 5.7986
H 0.3036 -3.8917 5.5645
H 1.1735 -1.3373 4.9662
H 2.6282 0.1852 4.1591
H 1.9128 1.2948 2.9486
H 3.0979 0.0841 2.4519
H -1.5367 -0.1114 1.4637
H -2.8470 1.0564 1.2975
H -1.9280 0.9770 2.8056
H -2.2002 3.4650 1.9170
H -1.9117 5.7708 1.8132
H -1.2326 6.3139 0.2306
H -0.1905 6.2758 1.7163
H 1.1317 4.9933 -0.2950
H 2.7343 3.5835 -1.2955
H 2.0190 2.0658 -1.9241
H 2.9941 1.9996 -0.4378
H 4.3315 -1.3708 1.8102
H 5.6294 -0.8903 3.0866
H 5.7893 -2.4143 2.1457
H 8.0817 -1.1558 1.8874
H 10.1673 -0.5672 1.0058
H 10.1829 1.0348 0.1862
H 10.1682 -0.4948 -0.7903
H 8.1506 1.1975 -1.6967
H 6.1474 1.8538 -2.7477
H 4.8193 2.1858 -1.6009
H 4.8412 0.6469 -2.5558
