38
 
P 1.0288 0.0596 -0.0750
C 0.0674 0.9648 1.1753
C 0.6019 1.2193 -1.4062
C 0.5374 -1.6412 0.0929
C -0.8164 -1.9886 -0.0567
C -1.2166 -3.3198 0.0674
C -0.2666 -4.3044 0.3488
C 1.0885 -3.9583 0.4830
C 1.4990 -2.6205 0.3425
Au 3.4888 0.0596 -0.0750
C 5.6388 0.0596 -0.0750
N 6.3274 1.1289 -0.0810
C 5.7409 2.4429 -0.1528
C 7.7454 0.8378 -0.0533
C 7.7938 -0.6734 0.2464
N 6.4459 -1.0877 -0.0336
C 6.0020 -2.4470 -0.2219
H -1.0247 0.9063 1.0422
H 0.4212 2.0193 1.2118
H 0.3472 0.5198 2.1591
H -0.5097 1.2561 -1.4855
H 0.9679 0.7839 -2.3610
H 1.0115 2.2332 -1.2596
H -1.5610 -1.2326 -0.2800
H -2.2613 -3.5861 -0.0533
H -0.5841 -5.3348 0.4552
H 1.8136 -4.7314 0.6929
H 2.5526 -2.3187 0.4249
H 4.6163 2.3600 -0.1730
H 6.1025 2.9553 -1.0704
H 6.0636 3.0344 0.7315
H 8.3066 1.4082 0.7170
H 8.1489 1.0511 -1.0679
H 7.9557 -0.8503 1.3347
H 8.5706 -1.1927 -0.3523
H 6.8610 -3.1467 -0.1258
H 5.5928 -2.5523 -1.2507
H 5.2198 -2.7106 0.5161
