69
 
P 0.9846 -0.0153 0.0976
C 0.1655 -0.1050 -1.4969
C -1.2134 -0.1437 -1.6621
C -1.7499 -0.2890 -2.9425
C -0.9144 -0.3928 -4.0770
O -1.4150 -0.6166 -5.3199
C -2.7472 -0.8698 -5.5828
C 0.4712 -0.2848 -3.9115
C 1.0062 -0.1375 -2.6298
C 0.5348 -1.6881 0.6071
C 0.8401 -2.8351 -0.1253
C 0.4517 -4.0932 0.3544
C -0.2284 -4.2250 1.5857
O -0.5994 -5.4325 2.0879
C -0.4527 -6.6379 1.4318
C -0.5280 -3.0732 2.3184
C -0.1616 -1.8176 1.8281
C 0.5078 1.4809 0.9912
C -0.3006 2.4598 0.4053
C -0.6562 3.5988 1.1200
C -0.2267 3.7877 2.4468
O -0.5400 4.9165 3.1387
C -1.2200 5.9905 2.5903
C 0.5452 2.7856 3.0559
C 0.9113 1.6406 2.3305
Au 3.4446 -0.0153 0.0976
N 5.5446 -0.0153 0.0976
C 6.1712 -1.0732 -0.4863
C 7.5658 -1.1362 -0.5276
C 8.3101 -0.0925 0.0191
C 7.6474 1.0020 0.5893
C 8.3550 2.0895 1.0928
C 7.6602 3.1756 1.6263
C 6.2415 3.1798 1.6935
C 5.5523 4.3688 2.2712
O 6.2215 5.3210 2.6473
C 4.0597 4.4781 2.4117
C 5.5281 2.0619 1.1871
C 6.2357 1.0082 0.6310
H -1.8684 -0.0769 -0.8077
H -2.8219 -0.3413 -3.0370
H -2.8915 -1.0687 -6.6628
H -3.3596 0.0091 -5.2935
H -3.0847 -1.7652 -5.0125
H 1.1387 -0.3416 -4.7674
H 2.0859 -0.0738 -2.5220
H 1.3672 -2.7587 -1.0639
H 0.6928 -4.9622 -0.2371
H -0.7925 -7.4665 2.0856
H 0.6148 -6.8099 1.1777
H -1.0674 -6.6360 0.5061
H -1.0467 -3.1465 3.2703
H -0.4174 -0.9456 2.4196
H -0.6664 2.3639 -0.6044
H -1.2692 4.3339 0.6216
H -1.3445 6.7963 3.3394
H -2.2268 5.6661 2.2503
H -0.6510 6.3972 1.7234
H 0.8703 2.8924 4.0860
H 1.5044 0.8746 2.8169
H 5.5805 -1.8666 -0.9248
H 8.0646 -1.9791 -0.9888
H 9.3927 -0.1326 -0.0178
H 9.4396 2.1062 1.0510
H 8.2473 4.0148 1.9811
H 3.5050 3.5846 2.0829
H 3.7033 5.3358 1.8060
H 3.8067 4.6475 3.4780
H 4.4269 1.9397 1.1654
