43
 
P 1.0962 0.0273 0.0020
C 0.1587 0.9987 1.2177
C 0.6445 0.9893 -1.4692
C 0.6020 -1.6592 0.3287
C -0.7525 -1.9906 0.1613
C -1.1800 -3.3118 0.2919
C -0.2548 -4.3143 0.5864
C 1.1032 -3.9948 0.7316
C 1.5388 -2.6646 0.5949
Au 3.5562 0.0273 0.0020
C 5.7062 0.0273 0.0020
N 6.4567 -0.5748 0.9365
C 5.9724 -1.2324 2.1405
C 7.7369 -0.3622 0.5840
C 7.7415 0.3639 -0.5915
N 6.4595 0.6164 -0.9516
C 5.9886 1.3106 -2.1354
C 6.8916 1.8328 -3.0803
C 6.4242 2.5360 -4.1974
C 5.0551 2.7387 -4.3845
C 4.1503 2.1971 -3.4850
C 4.6124 1.4725 -2.3988
H -0.9350 0.9571 1.0957
H 0.5114 2.0554 1.1319
H 0.4672 0.6601 2.2301
H -0.4671 0.9976 -1.5433
H 1.0205 0.4421 -2.3599
H 1.0362 2.0215 -1.4548
H -1.4755 -1.2286 -0.1049
H -2.2260 -3.5575 0.1496
H -0.5925 -5.3389 0.6855
H 1.8134 -4.7851 0.9348
H 2.5951 -2.4145 0.6725
H 4.8588 -1.2140 2.1651
H 6.3513 -0.6774 3.0289
H 6.3372 -2.2770 2.1826
H 8.6025 -0.6983 1.1406
H 8.6268 0.6728 -1.1283
H 7.9562 1.6994 -2.9697
H 7.1260 2.9319 -4.9149
H 4.6887 3.2968 -5.2327
H 3.0820 2.3234 -3.6227
H 3.8582 1.0479 -1.8260
