57
 
P 0.9216 0.0334 -0.0523
C 0.3161 -1.1823 1.1626
C 1.3352 -1.9935 1.7114
C 1.0428 -3.0587 2.5779
C 2.1301 -3.9585 3.1049
C -0.2866 -3.3004 2.9308
C -1.3072 -2.4960 2.4138
C -1.0170 -1.4501 1.5206
C 0.4018 1.6365 0.6141
C -0.9617 1.9286 0.8431
C -1.3861 3.2383 1.1322
C -2.8417 3.5554 1.3589
C -0.4411 4.2696 1.1658
C 0.9081 3.9935 0.9253
C 1.3295 2.6845 0.6548
C 0.4712 -0.5023 -1.6879
C -0.8845 -0.6503 -2.0421
C -1.2403 -1.0710 -3.3329
C -2.6841 -1.3012 -3.7040
C -0.2268 -1.2982 -4.2754
C 1.1245 -1.1060 -3.9295
C 1.4848 -0.7127 -2.6238
Au 3.3816 0.0334 -0.0523
N 5.4816 0.0334 -0.0523
C 5.9186 1.2206 -0.8074
C 5.9636 0.0868 1.3306
C 5.9379 -1.1269 -0.8317
H 2.3686 -1.8218 1.4290
H 3.1358 -3.6482 2.7483
H 1.9523 -5.0001 2.7569
H 2.1321 -3.9514 4.2148
H -0.5297 -4.1215 3.5965
H -2.3311 -2.7052 2.6931
H -1.8414 -0.8933 1.1199
H -1.7134 1.1685 0.7490
H -3.4744 2.6427 1.3268
H -3.2057 4.2551 0.5755
H -2.9758 4.0347 2.3520
H -0.7548 5.2901 1.3551
H 1.6232 4.8052 0.9153
H 2.3674 2.5033 0.4092
H -1.6621 -0.4515 -1.3140
H -3.3736 -1.0429 -2.8709
H -2.8262 -2.3778 -3.9393
H -2.9739 -0.7023 -4.5941
H -0.4901 -1.6205 -5.2781
H 1.8839 -1.2730 -4.6805
H 2.5393 -0.5520 -2.2994
H 5.5471 2.1429 -0.3131
H 5.5126 1.2143 -1.8425
H 7.0316 1.2776 -0.8505
H 5.5632 0.9846 1.8465
H 7.0749 0.0889 1.3691
H 5.5932 -0.8061 1.8803
H 5.5171 -1.1186 -1.8604
H 5.5807 -2.0568 -0.3392
H 7.0501 -1.1721 -0.8706
