45
 
P 0.9416 0.0612 0.0533
C 0.1999 -0.2318 1.7221
C -1.3173 -0.2150 1.8224
C 0.7658 -1.5488 2.2783
C 0.3912 1.7215 -0.5078
C 0.8757 2.8670 0.3726
C 0.8302 1.9399 -1.9625
C 0.4619 -1.4045 -0.9137
Au 3.4016 0.0612 0.0533
N 5.5016 0.0612 0.0533
C 6.3351 0.0113 1.1002
N 7.6247 0.0156 0.6880
C 8.8121 0.0145 1.5106
C 8.7204 0.0126 2.9182
C 9.8733 0.0793 3.7041
C 11.1304 0.1412 3.1015
C 11.2388 0.1205 1.7115
C 10.0923 0.0562 0.9209
C 7.5724 0.0585 -0.6655
C 6.2568 0.0877 -1.0519
H 0.5888 0.5686 2.3896
H -1.7686 -0.9723 1.1550
H -1.7064 0.7978 1.5989
H -1.6025 -0.4540 2.8739
H 0.4017 -2.4201 1.6988
H 0.4606 -1.6914 3.3362
H 1.8796 -1.5372 2.2472
H -0.7202 1.7122 -0.4898
H 1.9763 2.9874 0.2978
H 0.5811 2.7001 1.4263
H 0.3893 3.8095 0.0328
H 1.9383 1.9207 -2.0477
H 0.4567 2.9161 -2.3407
H 0.4107 1.1467 -2.6197
H -0.6488 -1.4445 -0.9553
H 0.8620 -2.3463 -0.5013
H 0.8262 -1.2751 -1.9539
H 5.9941 -0.0207 2.1247
H 7.7663 -0.0245 3.4228
H 9.7895 0.0935 4.7827
H 12.0212 0.2068 3.7105
H 12.2117 0.1653 1.2404
H 10.2225 0.0542 -0.1502
H 8.4123 0.0768 -1.3435
H 5.8731 0.1265 -2.0626
