70
 
P 1.0737 -0.0606 0.0300
C 0.2676 -0.5896 1.5618
C -1.1001 -0.4760 1.7636
C -1.6463 -0.7493 3.0176
C -0.8385 -1.1574 4.1006
O -1.3618 -1.4100 5.3293
C -2.6948 -1.2319 5.6452
C 0.5376 -1.2884 3.9009
C 1.0820 -0.9919 2.6475
C 0.5100 1.6251 -0.2285
C 0.8787 2.6154 0.6792
C 0.3267 3.8878 0.5896
C -0.6065 4.2031 -0.4166
O -1.2118 5.4208 -0.4646
C -1.0535 6.3994 0.5022
C -0.9314 3.2231 -1.3706
C -0.3738 1.9369 -1.2776
C 0.7239 -1.4990 -1.0293
C -0.5946 -1.8756 -1.3553
C -0.8356 -2.9550 -2.2126
C 0.2329 -3.6796 -2.7736
O 0.0328 -4.7573 -3.5787
C -1.1980 -5.3411 -3.8116
C 1.5416 -3.2700 -2.4950
C 1.7779 -2.1857 -1.6432
Au 3.5337 -0.0606 0.0300
C 5.6837 -0.0606 0.0300
N 6.3793 -1.0369 0.4702
C 5.8319 -2.2156 1.1112
C 4.2966 -2.1769 1.1790
C 7.7937 -0.7616 0.3288
C 7.8261 0.4650 -0.5966
N 6.4897 0.9816 -0.4727
C 6.0451 2.2788 -0.9423
C 5.5685 3.1514 0.2226
H -1.7421 -0.1312 0.9726
H -2.7070 -0.6179 3.1372
H -2.8895 -1.5403 6.6904
H -3.3244 -1.8536 4.9733
H -2.9695 -0.1599 5.5273
H 1.1915 -1.5922 4.7172
H 2.1451 -1.0571 2.5542
H 1.5681 2.4005 1.4829
H 0.6139 4.6133 1.3345
H -1.6628 7.2908 0.2560
H 0.0127 6.7042 0.5583
H -1.3800 6.0137 1.4956
H -1.6419 3.4421 -2.1616
H -0.6674 1.1790 -1.9946
H -1.4511 -1.3387 -0.9749
H -1.8600 -3.2180 -2.4390
H -1.0855 -6.2092 -4.4916
H -1.8861 -4.6101 -4.2853
H -1.6319 -5.6969 -2.8506
H 2.3843 -3.7871 -2.9390
H 2.7883 -1.8708 -1.4884
H 6.2470 -2.2708 2.1420
H 6.1546 -3.1255 0.5597
H 3.9707 -1.2466 1.6309
H 3.9378 -3.0398 1.7764
H 3.8783 -2.2300 0.1862
H 8.3846 -1.5972 -0.1022
H 8.1799 -0.4945 1.3383
H 7.9364 0.1380 -1.6560
H 8.6353 1.1746 -0.3244
H 5.2321 2.1533 -1.6853
H 6.8958 2.8105 -1.4249
H 4.7136 2.6785 0.7485
H 5.2455 4.1440 -0.1604
H 6.3953 3.3216 0.9485
