54
 
P 0.9864 -0.0253 0.0958
C 0.2490 0.9514 1.4820
C -1.2677 1.0367 1.5422
C 0.8139 0.4133 2.8065
C 0.4364 0.7476 -1.4771
C 0.9216 2.1793 -1.6689
C 0.8746 -0.1304 -2.6575
C 0.5025 -1.7445 0.4465
Au 3.4464 -0.0253 0.0958
P 5.9064 -0.0253 0.0958
O 6.9723 -1.2902 -0.3123
C 6.5261 -2.4937 0.3584
C 5.0041 -2.8278 0.3356
O 6.3836 1.1333 -1.0583
C 6.0759 2.4096 -0.5214
C 6.6936 3.4963 -1.3965
C 6.4644 0.0161 1.8471
C 5.5918 0.0545 2.9535
C 6.1164 0.1090 4.2617
C 7.4994 0.0992 4.4760
C 8.3669 0.0209 3.3896
C 7.8552 -0.0120 2.0905
H 0.6403 1.9885 1.3865
H -1.7190 0.0293 1.6058
H -1.6568 1.5957 0.6685
H -1.5515 1.6115 2.4549
H 0.4485 -0.6122 3.0119
H 0.5079 1.0609 3.6549
H 1.9274 0.3988 2.7777
H -0.6751 0.7540 -1.4575
H 2.0220 2.2107 -1.8092
H 0.6286 2.8080 -0.8065
H 0.4342 2.6038 -2.5759
H 1.9826 -0.2060 -2.7030
H 0.5023 0.2904 -3.6164
H 0.4537 -1.1553 -2.5591
H -0.6086 -1.7990 0.4431
H 0.8999 -2.1213 1.4041
H 0.8658 -2.3884 -0.3811
H 6.8623 -2.5023 1.4191
H 7.0273 -3.3578 -0.1184
H 4.3970 -2.1236 0.9559
H 4.8364 -3.8387 0.7718
H 4.6158 -2.8285 -0.7022
H 6.4696 2.5702 0.5156
H 4.9738 2.5501 -0.5272
H 7.8031 3.4622 -1.3404
H 6.3584 4.5050 -1.0656
H 6.3776 3.3459 -2.4483
H 4.5179 0.0506 2.8195
H 5.4573 0.1603 5.1194
H 7.9023 0.1468 5.4824
H 9.4387 -0.0092 3.5520
H 8.5539 -0.0731 1.2664
