41
 
P 1.0529 -0.0773 -0.0351
C 0.1253 -0.5312 -1.5294
C 0.5928 -1.5607 0.9056
C 0.5485 1.6036 0.3371
C -0.1925 1.8143 1.5151
C -0.6186 3.0968 1.8662
C -0.3067 4.1791 1.0429
C 0.4352 3.9767 -0.1281
C 0.8659 2.6896 -0.4827
Au 3.5129 -0.0773 -0.0351
N 5.6129 -0.0773 -0.0351
C 6.2297 1.1239 0.0010
C 5.3736 2.3444 0.0337
C 7.6299 1.1920 0.0010
C 8.3758 0.0027 -0.0328
C 9.8771 0.0341 -0.0279
C 7.7037 -1.2280 -0.0677
C 6.3003 -1.2492 -0.0678
C 5.5392 -2.5378 -0.0889
H -0.9694 -0.5117 -1.4095
H 0.4795 -1.5300 -1.8730
H 0.4351 0.1861 -2.3242
H -0.5198 -1.5971 0.9649
H 0.9516 -1.4098 1.9479
H 0.9944 -2.5004 0.4923
H -0.4434 0.9854 2.1677
H -1.1901 3.2500 2.7748
H -0.6398 5.1729 1.3149
H 0.6749 4.8202 -0.7599
H 1.4391 2.5407 -1.3867
H 4.2870 2.0438 0.0472
H 5.5872 2.9564 -0.8678
H 5.6139 2.9398 0.9401
H 8.1287 2.1530 0.0297
H 10.2631 1.0754 -0.0063
H 10.2675 -0.4649 -0.9400
H 10.2602 -0.4987 0.8682
H 8.2673 -2.1537 -0.0915
H 6.2261 -3.4122 -0.1046
H 4.8843 -2.5762 -0.9836
H 4.9039 -2.6022 0.8185
