63
 
P 1.0621 -0.0095 -0.0778
C 0.2842 1.6056 0.0072
C -1.0832 1.8735 -0.0783
C -1.5331 3.2025 0.0161
C -0.6223 4.2616 0.2057
C -1.0796 5.6907 0.2497
C 0.7397 3.9788 0.3340
C 1.1852 2.6644 0.2316
C 0.6148 -0.4688 -1.7586
C 0.9850 0.2694 -2.8770
C 0.5336 -0.1176 -4.1459
C -0.2862 -1.2494 -4.3077
C -0.8477 -1.6022 -5.6549
C -0.6061 -2.0299 -3.1908
C -0.1584 -1.6417 -1.9253
C 0.6187 -0.9743 1.3598
C -0.7339 -1.2487 1.6040
C -1.1205 -1.9619 2.7348
C -0.1563 -2.4159 3.6428
C -0.5927 -3.1158 4.9023
C 1.2117 -2.1894 3.3698
C 1.6058 -1.4696 2.2191
Au 3.5221 -0.0095 -0.0778
N 5.6221 -0.0095 -0.0778
C 6.2421 -0.8435 0.7837
C 7.6234 -0.8066 0.9277
C 8.4022 0.1256 0.1939
N 9.8336 0.2657 0.4190
C 10.5791 -0.5482 1.3771
C 10.6459 1.2927 -0.2258
C 7.6983 0.9441 -0.7347
C 6.3108 0.8524 -0.8570
H -1.7918 1.0742 -0.2251
H -2.5907 3.4085 -0.0659
H -2.1748 5.7693 0.0923
H -0.5740 6.2522 -0.5663
H -0.8184 6.1628 1.2205
H 1.4590 4.7749 0.5011
H 2.2498 2.4728 0.3330
H 1.5991 1.1488 -2.7617
H 0.8061 0.4807 -5.0018
H -0.5464 -0.8555 -6.4194
H -1.9583 -1.5872 -5.5925
H -0.5180 -2.6092 -5.9828
H -1.2220 -2.9198 -3.2960
H -0.4403 -2.2554 -1.0753
H -1.4981 -0.9069 0.9206
H -2.1758 -2.1452 2.9054
H -1.7026 -3.1651 4.9814
H -0.2266 -2.5417 5.7800
H -0.1928 -4.1486 4.9457
H 1.9601 -2.5582 4.0596
H 2.6641 -1.2735 1.9762
H 5.6490 -1.5252 1.3802
H 8.0169 -1.4964 1.6488
H 10.0055 -1.3226 1.8999
H 11.0048 0.1083 2.1663
H 11.4094 -1.0714 0.8594
H 10.1159 1.9486 -0.9266
H 11.4750 0.8172 -0.7894
H 11.0762 1.9604 0.5516
H 8.1596 1.6849 -1.3597
H 5.7746 1.5085 -1.5308
