79
 
P 0.9504 0.0841 0.0217
C 0.5917 -1.7219 0.2924
C -0.7288 -2.1410 0.5913
C -1.0331 -3.4809 0.8806
C -0.0313 -4.4460 0.8663
C 1.2829 -4.0671 0.5863
C 1.6019 -2.7168 0.3136
C 0.6157 1.1387 1.4939
C 1.3394 2.3114 1.7645
C 0.9498 3.1678 2.8046
C -0.1161 2.8274 3.6401
C -0.7904 1.6265 3.4429
C -0.4273 0.7907 2.3857
C 0.0846 0.6750 -1.5432
C -1.4407 0.6067 -1.5723
C -2.0268 1.5661 -0.5477
C -1.5483 3.0230 -0.7863
C -0.0429 3.1934 -1.0568
C 0.5099 2.1142 -1.9862
Au 3.4104 0.0841 0.0217
P 5.8704 0.0841 0.0217
C 6.6137 -1.4113 -0.6760
C 6.3463 -1.7165 -2.0262
C 6.6946 -2.9642 -2.5562
C 7.2962 -3.9239 -1.7408
C 7.5784 -3.6254 -0.4066
C 7.2505 -2.3741 0.1223
C 6.3454 1.3974 -1.1612
C 5.3839 2.1715 -1.8385
C 5.7827 3.2321 -2.6743
C 7.1380 3.5367 -2.8326
C 8.0998 2.7710 -2.1745
C 7.7094 1.7045 -1.3513
C 6.3337 0.1204 1.8108
C 5.9790 -0.8562 2.7903
O 5.2067 -1.9231 2.4487
C 4.8552 -2.9627 3.2970
C 6.4440 -0.6976 4.1241
C 7.2164 0.4005 4.4936
C 7.5528 1.3577 3.5461
C 7.1230 1.2167 2.2225
H -1.5423 -1.4364 0.6285
H -2.0496 -3.7752 1.1225
H -0.2740 -5.4846 1.0809
H 2.0512 -4.8323 0.5934
H 2.6384 -2.4696 0.1329
H 2.1569 2.6040 1.1183
H 1.4634 4.1079 2.9506
H -0.4191 3.4897 4.4415
H -1.6143 1.3515 4.0920
H -1.0100 -0.1029 2.2560
H 0.4613 0.0001 -2.3432
H -1.7779 -0.4337 -1.4067
H -1.7932 0.9115 -2.5844
H -1.7579 1.1744 0.4281
H -3.1335 1.5332 -0.5772
H -1.8377 3.6578 0.0828
H -2.0585 3.3896 -1.6913
H 0.4940 3.1430 -0.1560
H 0.1966 4.2215 -1.4066
H 1.6181 2.2099 -2.0648
H 0.0967 2.3263 -2.9969
H 5.8289 -1.0093 -2.6644
H 6.4655 -3.2027 -3.5881
H 7.5293 -4.9043 -2.1366
H 8.0226 -4.3767 0.2321
H 7.4432 -2.2060 1.1655
H 4.3292 1.9731 -1.7105
H 5.0450 3.8340 -3.1917
H 7.4460 4.3679 -3.4602
H 9.1494 3.0150 -2.2950
H 8.4788 1.1380 -0.8450
H 4.1585 -3.6436 2.7711
H 4.3368 -2.5773 4.2031
H 5.7533 -3.5434 3.6077
H 6.2133 -1.4168 4.8992
H 7.5526 0.5091 5.5200
H 8.1530 2.2108 3.8414
H 7.4164 1.9793 1.5144
