44
 
P 1.0698 0.0366 0.0616
O 0.5889 -0.8446 1.4556
C 0.9632 -2.1945 1.4762
C 2.4699 -2.3926 1.4149
O 0.7190 1.6472 -0.3917
C -0.6468 1.8798 -0.1178
C -0.9776 3.3602 -0.2058
C 0.3076 -1.0426 -1.2042
C -1.0649 -1.1938 -1.4635
C -1.4974 -2.0738 -2.4710
C -0.5761 -2.8233 -3.2097
C 0.7866 -2.6783 -2.9668
C 1.2240 -1.7877 -1.9831
Au 3.5298 0.0366 0.0616
C 5.6798 0.0366 0.0616
N 6.5333 -0.9930 0.3188
C 6.2624 -2.3813 0.6666
C 7.7785 -0.4830 0.1915
Cl 9.2784 -1.3765 0.4096
C 7.6820 0.8448 -0.1356
Cl 9.0345 1.9392 -0.4007
N 6.3752 1.1650 -0.2205
C 5.8186 2.4710 -0.5557
H 0.4073 -2.7839 0.7189
H 0.6255 -2.5798 2.4646
H 2.8577 -2.1061 0.4265
H 2.6807 -3.4699 1.5720
H 2.9566 -1.7988 2.2162
H -0.9539 1.5306 0.8996
H -1.2503 1.4070 -0.9077
H -0.4463 3.9362 0.5793
H -2.0741 3.4937 -0.0669
H -0.7016 3.7449 -1.2093
H -1.8084 -0.6514 -0.9076
H -2.5526 -2.1848 -2.6775
H -0.9161 -3.5168 -3.9704
H 1.5038 -3.2577 -3.5396
H 2.2926 -1.6933 -1.8240
H 5.1788 -2.5818 0.7194
H 6.7315 -2.6033 1.6505
H 6.7303 -3.0499 -0.0907
H 6.6294 3.2088 -0.7422
H 5.1910 2.8451 0.2786
H 5.2093 2.3883 -1.4780
