46
 
P 1.0678 0.0414 0.0608
C 0.1705 -0.6101 1.4966
C 0.5660 1.7837 0.0432
C 0.5679 -1.0928 -1.2625
Au 3.5278 0.0414 0.0608
P 5.9878 0.0414 0.0608
N 6.9785 1.3176 -0.6733
C 6.4035 1.5240 -2.0248
C 6.6908 2.5930 0.0505
O 6.3163 -1.2430 -0.9156
C 6.3890 -2.4378 -0.2948
C 5.5623 -3.4539 -0.7831
C 5.5447 -4.7096 -0.1819
C 6.3786 -4.9757 0.9010
C 7.2356 -3.9855 1.3876
C 7.2515 -2.6912 0.8214
C 8.1937 -1.6738 1.4157
C 9.5295 -2.0672 1.6442
C 10.4651 -1.1703 2.1660
C 10.0799 0.1220 2.5132
C 8.7611 0.5253 2.3384
C 7.8185 -0.3407 1.7792
O 6.5747 0.1423 1.5982
H -0.9260 -0.5723 1.4135
H 0.5209 -0.0396 2.3881
H 0.5207 -1.6566 1.6547
H -0.5458 1.8222 0.0138
H 0.9412 2.2473 -0.8938
H 0.9409 2.3342 0.9249
H -0.5439 -1.0963 -1.3115
H 0.9431 -2.1188 -1.0961
H 0.9441 -0.6926 -2.2278
H 6.5486 0.6301 -2.6594
H 6.8727 2.3912 -2.5396
H 5.3002 1.7361 -1.9890
H 6.9926 2.5570 1.1138
H 5.6053 2.8781 0.0313
H 7.2422 3.4454 -0.4069
H 4.9093 -3.2548 -1.6235
H 4.8790 -5.4761 -0.5561
H 6.3579 -5.9526 1.3674
H 7.8662 -4.2264 2.2354
H 9.8636 -3.0642 1.3827
H 11.4943 -1.4765 2.2985
H 10.8030 0.8186 2.9148
H 8.4712 1.5307 2.6130
