61
 
P 0.9229 0.0530 -0.0354
O 0.3765 -1.2272 -1.0346
C 0.8506 -1.2099 -2.3493
C 2.3707 -1.1078 -2.4722
O 0.5686 0.3131 1.6173
C -0.8125 0.0235 1.7906
C -1.1918 0.0236 3.2610
C -0.0266 1.4819 -0.6766
C -1.2375 1.3828 -1.3717
C -1.8923 2.5449 -1.8165
C -1.3415 3.8107 -1.5845
C -0.1343 3.9249 -0.8998
C 0.5171 2.7715 -0.4447
Au 3.3829 0.0530 -0.0354
P 5.8429 0.0530 -0.0354
N 6.6493 1.4405 -0.7892
C 6.1592 2.6270 -0.0471
C 8.1014 1.4505 -0.8980
O 6.1974 -1.1584 -1.0932
C 6.2613 -2.3736 -0.4696
C 5.4316 -3.4034 -0.9430
C 5.4051 -4.6569 -0.3234
C 6.2309 -4.9202 0.7642
C 7.0861 -3.9310 1.2437
C 7.1130 -2.6390 0.6663
C 8.0505 -1.6408 1.2980
C 9.3834 -2.0489 1.5336
C 10.3201 -1.1688 2.0819
C 9.9367 0.1135 2.4625
C 8.6191 0.5212 2.3009
C 7.6784 -0.3152 1.6975
O 6.4571 0.2188 1.4886
H 0.3099 -0.4444 -2.9374
H 0.5591 -2.2010 -2.7728
H 2.7254 -0.1144 -2.1566
H 2.6219 -1.2519 -3.5459
H 2.8499 -1.9063 -1.8762
H -1.0962 -0.9741 1.3746
H -1.4325 0.8177 1.3247
H -0.6543 -0.7813 3.8017
H -2.2874 -0.1512 3.3558
H -0.9531 1.0091 3.7111
H -1.6800 0.4170 -1.5534
H -2.8330 2.4684 -2.3419
H -1.8488 4.7044 -1.9324
H 0.2919 4.9087 -0.7219
H 1.4560 2.8978 0.0842
H 5.0423 2.6545 -0.0334
H 6.5021 3.5765 -0.5015
H 6.4944 2.6145 1.0162
H 8.4501 0.5629 -1.4553
H 8.5892 1.5481 0.0778
H 8.3995 2.3618 -1.4629
H 4.7778 -3.2249 -1.7829
H 4.7375 -5.4294 -0.6838
H 6.2045 -5.8932 1.2439
H 7.7066 -4.1718 2.1012
H 9.7180 -3.0407 1.2513
H 11.3494 -1.4782 2.2071
H 10.6609 0.8038 2.8725
H 8.3287 1.5247 2.5844
