84
 
P 0.9713 0.0666 -0.0689
C 0.4584 1.7817 -0.3772
C -0.4404 2.4879 0.4410
C -0.9065 3.7433 0.0767
C -0.4996 4.3213 -1.1217
C 0.3884 3.6405 -1.9569
C 0.8682 2.3765 -1.5883
C 0.6265 -1.2703 -1.2727
C -0.0545 -1.0066 -2.4885
C -0.2325 -2.0207 -3.4470
C 0.2494 -3.3065 -3.2028
C 0.8899 -3.5869 -1.9935
C 1.0778 -2.5770 -1.0351
C 0.0737 -0.2910 1.5069
C 0.5307 0.5994 2.6624
C -0.3778 0.8503 3.7176
C -0.0870 1.8052 4.6986
C 1.1144 2.5134 4.6448
C 2.0511 2.2324 3.6418
C 1.7832 1.2751 2.6519
Au 3.4313 0.0666 -0.0689
P 5.8913 0.0666 -0.0689
C 6.5927 -0.0256 1.6996
C 6.0956 -1.3471 2.3517
C 8.1216 0.0255 1.8509
C 5.9871 1.0900 2.5670
C 6.4110 -1.3808 -1.1799
C 5.8733 -1.1390 -2.5990
C 7.9564 -1.5166 -1.2654
C 5.8560 -2.7428 -0.7277
C 6.3843 1.7359 -0.5727
C 5.4523 2.7069 -0.9273
C 5.8733 3.8973 -1.5411
C 7.2461 4.1492 -1.8380
N 7.6822 5.3110 -2.6001
C 6.7567 6.3161 -3.1083
C 9.0682 5.5261 -3.0240
C 8.1664 3.1696 -1.4115
C 7.7407 1.9987 -0.8067
H -0.8409 2.0923 1.3461
H -1.6085 4.2494 0.7243
H -0.8896 5.2885 -1.4049
H 0.6842 4.0861 -2.8985
H 1.5255 1.8503 -2.2730
H -0.4376 -0.0216 -2.7214
H -0.7320 -1.8144 -4.3889
H 0.1278 -4.0844 -3.9511
H 1.2549 -4.5886 -1.8079
H 1.5927 -2.8116 -0.1161
H 0.2854 -1.3425 1.8060
H -1.0153 -0.2043 1.3285
H -1.3356 0.3419 3.7573
H -0.8065 2.0208 5.4837
H 1.3193 3.2850 5.3795
H 2.9806 2.7820 3.6144
H 2.5510 1.1040 1.8603
H 6.6103 -2.2321 1.9625
H 4.9935 -1.4691 2.2377
H 6.3273 -1.3895 3.4374
H 8.6255 -0.8410 1.4063
H 8.4037 -0.0015 2.9230
H 8.5379 0.9603 1.4587
H 4.8788 1.0801 2.5006
H 6.3811 2.0840 2.2873
H 6.2519 0.9186 3.6388
H 6.2581 -0.1965 -3.0398
H 4.7629 -1.1193 -2.5875
H 6.1964 -1.9718 -3.2682
H 8.4625 -0.5814 -1.5550
H 8.2640 -2.2721 -2.0164
H 8.3856 -1.8909 -0.3235
H 4.7552 -2.7006 -0.6105
H 6.3197 -3.1196 0.1886
H 6.1157 -3.5256 -1.4741
H 4.3936 2.5285 -0.7946
H 5.0781 4.5625 -1.8094
H 5.7046 6.1702 -2.8424
H 6.7948 6.3190 -4.2189
H 7.0436 7.3167 -2.7267
H 9.7988 4.7709 -2.7085
H 9.4370 6.5003 -2.6418
H 9.1174 5.5349 -4.1348
H 9.2287 3.2281 -1.5635
H 8.5101 1.2838 -0.5959
