68
 
P 1.0873 -0.0462 0.0155
C 0.6815 1.6743 0.5782
C -0.0854 2.5555 -0.2395
C -0.4115 3.8517 0.1788
C 0.0307 4.3147 1.4108
C 0.7938 3.4802 2.2242
C 1.1157 2.1805 1.8140
C 0.5185 -0.5702 -1.7421
C 1.2417 -1.3535 -2.6986
C 0.7793 -1.5449 -4.0313
C -0.4138 -0.9709 -4.4547
C -1.1637 -0.2419 -3.5440
C -0.7152 -0.0632 -2.2207
C 0.2694 -1.2058 1.2568
C 0.6844 -2.6660 0.9298
C 2.2289 -2.7874 0.8462
C 2.8613 -2.4303 2.2000
C 2.3486 -1.0906 2.7683
C 0.8013 -0.9855 2.7138
Au 3.5473 -0.0462 0.0155
C 5.6973 -0.0462 0.0155
N 6.4661 -0.5916 -0.9475
C 6.0194 -1.2659 -2.1622
C 6.5087 -2.7164 -2.1735
C 4.5067 -1.2336 -2.2517
C 7.7429 -0.3844 -0.5712
C 7.7324 0.2948 0.6237
N 6.4451 0.5060 0.9852
C 5.9198 1.1914 2.1691
C 7.0641 1.7087 3.0568
C 4.9972 2.3336 1.7248
H -0.4496 2.2988 -1.2125
H -1.0035 4.5039 -0.4570
H -0.2098 5.3220 1.7299
H 1.1439 3.8420 3.1797
H 1.7139 1.5974 2.4784
H 2.1534 -1.8350 -2.4632
H 1.3393 -2.1285 -4.7604
H -0.7657 -1.0982 -5.4800
H -2.0987 0.1979 -3.8716
H -1.3542 0.5028 -1.5780
H -0.8369 -1.1143 1.2583
H 0.2092 -2.9971 -0.0119
H 0.3206 -3.3586 1.7313
H 2.6457 -2.1208 0.0539
H 2.5157 -3.8240 0.5687
H 3.9700 -2.3975 2.0921
H 2.6041 -3.2370 2.9139
H 2.7848 -0.2640 2.1831
H 2.7120 -0.9692 3.8137
H 0.4541 -0.0242 3.1353
H 0.3724 -1.7541 3.4008
H 6.4260 -0.7313 -3.0472
H 6.1198 -3.2631 -1.2868
H 7.6171 -2.7453 -2.1568
H 6.1605 -3.2292 -3.0953
H 4.0853 -1.7434 -1.3676
H 4.1915 -1.7414 -3.1852
H 4.1307 -0.1877 -2.2687
H 8.6194 -0.6991 -1.1219
H 8.6086 0.6054 1.1761
H 5.3135 0.4731 2.7627
H 7.7018 2.4225 2.4899
H 7.6950 0.8527 3.3836
H 6.6764 2.2159 3.9625
H 5.5734 3.0737 1.1260
H 4.5841 2.8550 2.6143
H 4.1487 1.9206 1.1106
