30
 
P 1.2750 0.0000 0.0000
O 0.4221 1.4675 -0.3266
C -0.9734 1.3573 -0.2938
C -1.4050 -0.0630 0.0129
C -2.9372 -0.1352 0.0285
C -0.7794 -0.9697 -1.1150
O 0.6276 -0.8053 -1.3430
O 0.6249 -0.1648 1.5561
C -0.7795 -0.4231 1.4142
Au 3.7350 0.0003 -0.0005
N 5.8350 0.0006 -0.0009
C 6.4797 -0.1394 1.1882
C 7.8726 -0.0547 1.2465
C 8.5903 0.1809 0.0723
C 7.9100 0.3245 -1.1397
C 6.5144 0.2341 -1.1555
H -1.3631 1.6832 -1.2832
H -1.3593 2.0618 0.4764
H -3.3431 0.1845 -0.9576
H -3.3432 0.5604 0.7969
H -3.2835 -1.1626 0.2485
H -1.2849 -0.7112 -2.0720
H -0.9954 -2.0353 -0.8964
H -1.2883 0.2023 2.1805
H -0.9924 -1.4860 1.6526
H 5.9058 -0.3014 2.0911
H 8.3878 -0.1578 2.1930
H 9.6693 0.2605 0.1037
H 8.4575 0.5166 -2.0532
H 5.9704 0.3638 -2.0816
