93
 
P 0.9480 0.0545 0.0658
C 0.5067 -0.1372 -1.9109
C 1.1024 0.9868 -2.7511
C 2.6460 0.8972 -2.7838
C 3.1499 -0.4450 -3.3380
C 2.5051 -1.5840 -2.5733
C 0.9892 -1.3723 -2.7863
C 0.1446 -1.4829 0.8852
C -1.4362 -1.4763 0.8091
C -1.9244 -1.8248 -0.5736
C -1.2953 -3.1454 -1.0544
C 0.2007 -3.4119 -0.6359
C 0.5847 -2.9379 0.7183
C 0.4702 1.6889 0.9129
C -0.4192 1.7675 2.0881
C -1.0110 0.7073 3.0139
C -0.8177 3.0144 2.5926
C -0.3502 4.1968 2.0835
C -0.7703 5.4988 2.6808
C 0.5648 4.1676 1.0618
C 0.9910 2.9602 0.4848
C 2.1084 3.1235 -0.4735
Au 3.4080 0.0545 0.0658
P 5.8680 0.0545 0.0658
C 6.6295 1.5552 0.8160
C 5.8292 2.3012 1.7226
C 6.2215 3.5778 2.1566
C 7.4062 4.1387 1.6835
C 8.2016 3.4225 0.7880
C 7.8202 2.1449 0.3547
C 6.2278 -1.4272 1.0333
C 5.7658 -2.6714 0.5879
C 6.0349 -3.8314 1.3250
C 6.7701 -3.7574 2.5115
C 7.2416 -2.5223 2.9623
C 6.9731 -1.3582 2.2286
C 6.4217 0.2428 -1.6858
C 5.9534 1.5245 -2.3684
C 5.1701 2.4856 -1.7057
C 4.7362 3.6403 -2.3380
C 5.0593 3.8688 -3.6618
C 5.8472 2.9455 -4.3496
C 6.3020 1.7811 -3.7082
H -0.5293 0.0536 -2.1788
H 0.6173 1.9036 -2.4124
H 0.7525 0.9343 -3.8109
H 3.0196 0.9748 -1.7656
H 3.0568 1.7163 -3.3963
H 4.2419 -0.5361 -3.2730
H 2.8788 -0.5326 -4.4146
H 2.8406 -1.5632 -1.4651
H 2.8160 -2.5498 -3.0387
H 0.4136 -2.3009 -2.8167
H 0.7761 -1.2242 -3.8756
H 0.5061 -1.3595 1.9127
H -1.8975 -0.5036 1.0570
H -1.8647 -2.2389 1.4956
H -1.7197 -0.9717 -1.1554
H -3.0296 -1.8431 -0.6832
H -1.4338 -3.2148 -2.1577
H -1.9062 -3.9425 -0.6028
H 0.9564 -2.8356 -1.0698
H 0.5039 -4.4469 -0.8660
H 1.6851 -3.0237 0.8980
H 0.0791 -3.5783 1.4752
H -0.7343 -0.3249 2.9757
H -2.1211 0.7394 2.9845
H -0.7014 0.9456 4.0574
H -1.4943 3.0712 3.4413
H -1.4944 5.3504 3.5101
H -1.2443 6.1275 1.9002
H 0.1296 6.0056 3.0855
H 0.9608 5.1184 0.7236
H 2.5093 4.1552 -0.4294
H 1.8449 3.1073 -1.5219
H 2.8933 2.4173 -0.1300
H 4.8694 1.9234 2.0609
H 5.5944 4.1531 2.8316
H 7.6992 5.1372 1.9914
H 9.1040 3.8741 0.3996
H 8.4406 1.6624 -0.3761
H 5.1990 -2.7423 -0.3307
H 5.6735 -4.7897 0.9766
H 6.9751 -4.6570 3.0802
H 7.8146 -2.4711 3.8812
H 7.3498 -0.4144 2.6015
H 6.1213 -0.6542 -2.2544
H 7.5324 0.2204 -1.6953
H 4.8697 2.3603 -0.6969
H 4.1403 4.3577 -1.8036
H 4.6946 4.7661 -4.1410
H 6.1005 3.1391 -5.3805
H 6.9147 1.0836 -4.2634
