57
 
P 1.2750 0.0000 0.0000
N 0.3891 0.7127 -1.3538
C -1.0483 0.6362 -1.2716
C -1.4525 -0.0276 0.0325
C -2.9784 -0.0538 0.0851
C -0.8602 -1.5014 0.0211
N 0.6132 -1.6013 -0.1717
N 0.6079 1.0525 1.2129
C -0.8659 0.8406 1.2284
Au 3.7350 0.0003 -0.0005
P 6.1950 0.0007 -0.0009
N 7.1541 0.9265 -1.1798
C 6.6829 2.3217 -1.1148
C 8.6115 0.8915 -1.3673
C 9.1839 -0.4812 -1.2709
N 9.5269 -1.0416 0.1067
C 8.9455 -0.6578 1.4613
C 8.2617 0.7103 1.6952
N 6.7734 0.8089 1.4565
C 5.9745 0.2659 2.5608
N 6.4029 -1.8344 -0.4173
C 5.7162 -2.2931 -1.6335
C 7.5520 -2.7391 0.0499
C 9.1623 -2.4848 -0.0416
H 0.7382 0.2664 -2.2350
H -1.4378 0.0740 -2.1519
H -1.4390 1.6746 -1.3403
H -3.3746 -0.6135 -0.7913
H -3.3710 0.9864 0.0319
H -3.3263 -0.5324 1.0189
H -1.3465 -2.0874 -0.7913
H -1.1247 -1.9963 0.9779
H 0.8727 -1.9861 -1.1083
H 0.8694 2.0401 0.9917
H -1.3506 1.8429 1.2284
H -1.1384 0.3510 2.1858
H 5.5704 2.3741 -1.0523
H 6.9807 2.8868 -2.0208
H 7.0968 2.8275 -0.2142
H 9.1948 1.6483 -0.8221
H 8.7368 1.1691 -2.4419
H 10.0677 -0.6001 -1.9273
H 8.4585 -1.0822 -1.8879
H 9.7805 -0.8014 2.1821
H 8.2311 -1.3865 1.9014
H 8.8373 1.5151 1.2197
H 8.4268 0.9200 2.7761
H 6.2641 0.7323 3.5251
H 6.0867 -0.8385 2.6442
H 4.8964 0.5000 2.3747
H 4.6345 -2.0837 -1.5233
H 5.8210 -3.3983 -1.7610
H 6.1554 -1.8157 -2.5320
H 7.6887 -1.8587 -0.2637
H 7.5518 -3.6669 -0.5777
H 9.6106 -2.8602 -1.0070
H 9.7268 -3.1043 0.6951
