27
 
C 0.9010 -0.6430 -0.0020
N -0.3538 -1.1115 0.0204
C -0.7397 -2.5133 0.0407
C -1.1579 -0.0287 0.0153
C -0.3559 1.1006 -0.0084
N 0.9308 0.6976 -0.0179
C 2.1308 1.5219 -0.0346
Au 2.6584 -1.8814 -0.0135
N 4.3750 -3.0911 -0.0247
C 4.2077 -4.4385 0.0464
C 5.3183 -5.2804 0.1362
C 6.5974 -4.7210 0.1451
C 6.7495 -3.3348 0.0535
C 5.6116 -2.5256 -0.0330
H 0.1747 -3.1554 0.0401
H -1.3517 -2.7431 -0.8570
H -1.3367 -2.7221 0.9534
H -2.2398 -0.0543 0.0278
H -0.6863 2.1313 -0.0166
H 1.8638 2.6000 -0.0409
H 2.7317 1.2894 -0.9388
H 2.7409 1.3062 0.8682
H 3.2078 -4.8521 0.0618
H 5.1874 -6.3521 0.2137
H 7.4671 -5.3600 0.2294
H 7.7373 -2.8929 0.0656
H 5.7101 -1.4494 -0.0802
