59
 
C 0.9010 -0.6430 -0.0020
N -0.3858 -1.1840 -0.0603
C -0.9067 -2.6109 -0.0583
C -0.0498 -3.7723 0.0332
C 1.3484 -3.7556 0.2071
C -0.4754 -5.0746 0.0374
C -1.7930 -5.3675 0.0073
C -2.1598 -6.8079 0.0584
C -2.7191 -4.3270 -0.0343
C -2.3137 -2.9647 -0.0695
C -3.4436 -1.9794 -0.0754
C -1.1548 -0.0748 -0.0200
C -0.3975 1.0340 0.0788
N 0.9126 0.7256 0.0671
C 2.0188 1.7133 0.0080
C 3.3223 1.4903 0.5354
C 3.7003 0.2336 1.2387
C 4.3389 2.4874 0.4036
C 4.1001 3.6852 -0.2817
C 5.1308 4.7585 -0.4919
C 2.8629 3.8941 -0.8329
C 1.8457 2.9517 -0.7042
C 0.6147 3.2918 -1.4466
Au 2.6584 -1.8814 -0.0135
N 4.3750 -3.0911 -0.0247
C 4.3756 -4.3123 -0.6604
C 5.4746 -5.1737 -0.6073
C 6.5836 -4.8230 0.1459
Cl 7.9323 -5.9380 0.2972
C 6.6013 -3.5896 0.7873
C 5.5039 -2.7218 0.6646
H 1.3465 -2.8759 0.7509
H 1.7582 -3.9037 -0.8075
H 1.8156 -4.3471 1.0215
H 0.2540 -5.8860 0.0998
H -1.2527 -7.4604 0.0923
H -2.7198 -7.0594 -0.8582
H -2.7347 -6.9938 0.9841
H -3.7670 -4.5877 -0.0263
H -4.4435 -2.4529 -0.0573
H -3.4019 -1.3762 -1.0065
H -3.3975 -1.3779 0.8593
H -2.2050 0.0525 -0.0322
H -0.8699 1.9833 0.1605
H 2.9290 -0.4923 1.3938
H 4.0804 0.5455 2.2489
H 4.4407 -0.2442 0.6226
H 5.3274 2.3334 0.8224
H 6.0982 4.5044 -0.0207
H 4.7588 5.7228 -0.0770
H 5.2872 4.8996 -1.5864
H 2.6936 4.8134 -1.3886
H 0.7037 4.1918 -2.0828
H -0.1393 3.5869 -0.7106
H 0.4138 2.4255 -2.1134
H 3.5624 -4.6472 -1.2708
H 5.4530 -6.1187 -1.1376
H 7.4519 -3.3161 1.3993
H 5.5554 -1.8186 1.2346
