67
 
C 0.9010 -0.6430 -0.0020
N 0.2788 -0.1419 -1.1077
C 0.5823 -0.3716 -2.5307
C 1.7924 -1.2952 -2.6468
C -0.6762 -0.9851 -3.1876
C 0.9325 0.9337 -3.2580
C -0.7579 0.5925 -0.6522
C -0.7619 0.5398 0.7123
N 0.2659 -0.2393 1.1207
C 0.6580 -0.5053 2.5092
C -0.5808 -0.5343 3.4284
C 1.3692 -1.8605 2.6227
C 1.6081 0.6169 2.9278
Au 2.6584 -1.8814 -0.0135
C 4.4159 -3.1199 -0.0250
N 5.6889 -2.6731 -0.0396
C 6.1213 -1.2798 0.0039
C 4.8336 -0.3743 0.0914
C 7.0795 -1.1362 1.2179
C 6.9424 -0.9203 -1.2589
C 6.4778 -3.7713 -0.0595
C 5.6688 -4.8764 -0.0438
N 4.3833 -4.4583 -0.0281
C 3.1876 -5.2877 -0.0352
C 3.1942 -6.1986 1.2089
C 1.9192 -4.3748 -0.0338
C 3.2507 -6.1525 -1.3070
H 1.5918 -2.1797 -2.0608
H 2.6807 -0.7836 -2.2328
H 2.0168 -1.6111 -3.6812
H -1.0683 -1.8389 -2.5936
H -0.4812 -1.3098 -4.2291
H -1.4893 -0.2243 -3.2267
H 1.8219 1.4102 -2.7941
H 0.0864 1.6498 -3.2274
H 1.1656 0.7096 -4.3232
H -1.4746 1.1253 -1.2642
H -1.4761 1.0444 1.3472
H -1.2946 -1.3155 3.0850
H -1.1043 0.4431 3.4297
H -0.2871 -0.7472 4.4764
H 0.6880 -2.6621 2.2644
H 1.6691 -2.0847 3.6642
H 2.3040 -1.8555 2.0402
H 1.0872 1.5950 2.8423
H 2.4827 0.6401 2.2402
H 1.9611 0.4710 3.9676
H 4.1336 -0.6520 0.8815
H 4.1882 -0.4932 -0.7771
H 5.1485 0.6860 0.1955
H 6.6291 -1.5505 2.1426
H 7.4013 -0.0888 1.3806
H 8.0160 -1.7255 1.0434
H 6.3367 -1.0380 -2.1792
H 7.8453 -1.5690 -1.3608
H 7.3039 0.1300 -1.1985
H 7.5606 -3.7784 -0.0683
H 5.9990 -5.9075 -0.0469
H 3.1878 -5.5887 2.1370
H 4.1067 -6.8368 1.2299
H 2.3121 -6.8720 1.2107
H 1.8875 -3.7073 0.8151
H 1.0064 -5.0051 -0.0743
H 1.9260 -3.7092 -0.8660
H 4.1733 -6.7788 -1.3030
H 3.3069 -5.4973 -2.2028
H 2.3795 -6.8302 -1.3854
