58
 
P -1.3500 0.0010 0.7980
N -1.1770 -1.1625 -0.5496
C -2.3816 -1.1612 -1.3841
C 0.0219 -1.3864 -1.3660
C 1.2809 -1.2615 -0.5943
N 1.7323 0.1183 -0.2354
C 1.1176 1.4855 -0.3501
C -0.2508 1.6965 -1.0274
N -1.4668 1.4384 -0.1966
C -1.8163 2.5377 0.7039
N -0.0057 -0.6819 1.8689
C -0.4700 -1.5862 2.9266
C 1.3422 -0.0373 2.1726
C 2.4082 0.0026 1.0347
Au -3.3226 0.0026 2.2679
P -5.2952 0.0042 3.7377
C -6.6416 1.2134 3.5105
C -6.1746 -1.5257 3.3134
C -4.6763 0.3245 5.4408
C -3.9659 1.6798 5.5187
C -5.8589 0.2866 6.4345
C -3.6974 -0.8002 5.8158
H -3.2967 -1.1205 -0.7554
H -2.4335 -2.0963 -1.9818
H -2.3718 -0.2893 -2.0725
H 0.0661 -0.8294 -2.3151
H -0.0250 -2.4624 -1.6615
H 2.1072 -1.7654 -1.1390
H 1.1569 -1.9397 0.2869
H 1.8654 2.0900 -0.9053
H 1.0599 2.0106 0.6270
H -0.2852 1.1879 -2.0009
H -0.2719 2.7697 -1.3189
H -1.9381 3.4802 0.1289
H -1.0332 2.6893 1.4793
H -2.7926 2.2896 1.2082
H -1.4808 -1.3008 3.2886
H 0.2181 -1.5883 3.8063
H -0.4656 -2.6226 2.5349
H 1.1984 0.9734 2.5891
H 1.9092 -0.6113 2.9423
H 3.0718 -0.9028 1.0089
H 3.1439 0.8295 1.1804
H -6.9930 1.1275 2.4583
H -6.2069 2.2339 3.5944
H -7.4971 1.0946 4.1929
H -6.4831 -1.5414 2.2519
H -7.0723 -1.6025 3.9668
H -5.5170 -2.3906 3.5396
H -4.6601 2.5083 5.2723
H -3.1090 1.7059 4.8128
H -3.5841 1.8518 6.5484
H -6.5953 1.0886 6.2279
H -5.5075 0.4316 7.4775
H -6.3872 -0.6914 6.3813
H -2.8347 -0.8186 5.1213
H -4.2021 -1.7911 5.7720
H -3.3151 -0.6600 6.8503
