45
 
P -1.3500 0.0010 0.7980
N -1.1697 -1.1742 -0.5322
C -2.3677 -1.1621 -1.3727
C 0.0364 -1.4107 -1.3321
C 1.2773 -1.2811 -0.5382
N 1.7675 0.1064 -0.2498
C 1.1472 1.4776 -0.3117
C -0.2012 1.6943 -1.0161
N -1.4364 1.4371 -0.2064
C -1.7976 2.5353 0.6918
N -0.0056 -0.6600 1.8943
C -0.4396 -1.5687 2.9662
C 1.3801 -0.0727 2.1545
C 2.4462 -0.0117 1.0132
Au -3.3226 0.0026 2.2679
O -4.9664 0.0039 3.4928
C -5.9348 0.8846 3.4577
C -6.8599 0.5473 4.4269
C -6.3790 -0.5934 5.0431
C -5.1864 -0.8944 4.4194
H -3.2856 -1.1083 -0.7475
H -2.4282 -2.0974 -1.9675
H -2.3419 -0.2874 -2.0561
H 0.0955 -0.8659 -2.2870
H -0.0092 -2.4920 -1.6056
H 2.1074 -1.8453 -1.0141
H 1.1172 -1.9264 0.3592
H 1.9130 2.1101 -0.8155
H 1.0681 1.9858 0.6725
H -0.2039 1.1773 -1.9864
H -0.2118 2.7679 -1.3095
H -1.9050 3.4810 0.1198
H -1.0313 2.6792 1.4857
H -2.7828 2.2874 1.1802
H -1.4204 -1.2753 3.3931
H 0.2762 -1.5739 3.8252
H -0.4384 -2.6058 2.5775
H 1.2681 0.9349 2.5793
H 1.9493 -0.7141 2.8668
H 3.1345 -0.8990 0.9720
H 3.1701 0.8227 1.1753
H -5.9854 1.7243 2.7779
H -7.7787 1.0686 4.6590
H -6.8438 -1.1423 5.8513
H -4.5304 -1.7258 4.6408
