37
 
C 1.0240 -0.6530 -0.0550
N 0.0498 -0.9164 0.7383
C -0.0923 -2.1165 1.5234
C -0.9668 0.1130 0.6851
C -0.2999 1.2385 -0.1092
N 0.8039 0.5643 -0.7345
C 1.5901 1.1134 -1.8096
Au 2.7802 -1.8697 -0.2955
N 4.4956 -3.0582 -0.5304
C 5.7158 -2.5199 -0.9351
N 5.9283 -1.0823 -1.1178
C 4.9193 -0.0691 -0.8742
C 7.2006 -0.4805 -1.5278
C 6.7852 -3.4264 -1.1496
C 6.6061 -4.7918 -0.9788
C 5.3764 -5.2842 -0.5722
C 4.3294 -4.3953 -0.3363
H 0.7695 -2.8046 1.3639
H -1.0349 -2.6277 1.2223
H -0.1810 -1.8462 2.5975
H -1.2979 0.4744 1.6821
H -1.8304 -0.3031 0.1198
H 0.1448 1.9889 0.5847
H -1.0072 1.7279 -0.8107
H 1.1855 2.1048 -2.1103
H 1.5336 0.4375 -2.6896
H 2.6335 1.2481 -1.4911
H 4.0314 -0.4028 -0.4046
H 4.7046 0.4684 -1.8225
H 5.2935 0.6599 -0.1261
H 8.0388 -1.1632 -1.7004
H 7.5453 0.2280 -0.7405
H 7.0592 0.0956 -2.4670
H 7.7711 -3.1358 -1.4564
H 7.4321 -5.4670 -1.1679
H 5.2373 -6.3504 -0.4555
H 3.3609 -4.7767 -0.0442
