44
 
C 0.9010 -0.6430 -0.0020
N 0.8702 0.7081 -0.0834
C 1.9969 1.6220 -0.2635
C 3.2794 0.8351 -0.2342
C -0.4285 1.0571 -0.0347
C -1.1800 -0.1001 0.0583
N -0.3321 -1.1508 0.0615
C -0.6418 -2.5686 0.1465
C 0.6540 -3.4046 0.0672
Au 2.6584 -1.8814 -0.0135
C 4.4159 -3.1199 -0.0250
N 4.4784 -4.3817 -0.5135
C 3.4670 -5.1405 -1.2295
C 5.7473 -4.8015 -0.3479
C 6.4600 -3.8117 0.2761
N 5.6413 -2.7632 0.4898
C 5.9837 -1.5983 1.2815
C 7.2684 -1.3447 1.8091
C 7.5086 -0.1898 2.5771
C 6.4838 0.7323 2.8055
C 5.2069 0.4584 2.3298
C 4.9795 -0.7281 1.6125
H 2.0172 2.3547 0.5810
H 1.9022 2.1795 -1.2155
H 3.1299 0.5108 0.7611
H 4.1831 1.4757 -0.3116
H 3.3667 -0.0929 -0.8385
H -0.7967 2.0747 -0.0786
H -2.2586 -0.1619 0.1103
H -1.3014 -2.8405 -0.7063
H -1.1917 -2.7632 1.0935
H 1.1307 -3.1710 -0.8882
H 0.3815 -4.4764 0.1392
H 1.3760 -3.1781 0.8575
H 2.5498 -4.5659 -1.3383
H 3.2619 -6.0996 -0.7172
H 3.8316 -5.3391 -2.2621
H 6.1356 -5.7606 -0.6634
H 7.4956 -3.8781 0.5769
H 8.0829 -2.0294 1.6497
H 8.4893 -0.0052 2.9918
H 6.6675 1.6404 3.3697
H 4.4027 1.1603 2.5275
H 4.0255 -1.0526 1.2746
