70
 
P 1.2750 0.0000 0.0000
N 0.4760 1.5442 -0.2344
C 1.1116 2.5164 0.7209
C 2.6598 2.6525 0.5358
C 0.5400 3.9224 0.5800
C -0.9846 1.4449 -0.2249
C -1.4412 0.0142 0.0288
C -2.9759 -0.0179 0.0302
C -0.9149 -0.9094 -1.1357
N 0.5714 -0.9386 -1.3483
C 1.0488 -2.3731 -1.2873
C 0.4383 -3.3552 -2.3025
C 2.5670 -2.5086 -1.3973
N 0.6290 -0.3535 1.6197
C 1.1822 -1.6545 2.1428
C 2.7178 -1.6759 2.2482
C 0.6217 -2.1177 3.4934
C -0.8691 -0.4343 1.4415
Au 3.7350 0.0003 -0.0005
C 5.8850 0.0006 -0.0009
N 6.6109 0.2529 -1.0991
C 6.0801 0.5726 -2.4089
C 4.5296 0.5985 -2.3751
C 7.9115 0.1574 -0.7445
C 7.9667 -0.1656 0.5890
N 6.7054 -0.2695 1.0483
C 6.3705 -0.5690 2.4313
C 5.6173 0.6116 2.9873
H 0.9393 2.1852 1.7682
H 2.9427 2.8996 -0.5106
H 3.2040 1.7578 0.8590
H 3.0833 3.4332 1.2013
H 0.7363 4.3113 -0.4391
H 1.0203 4.5784 1.3378
H -0.5398 3.9555 0.7926
H -1.3515 1.7983 -1.2154
H -1.4342 2.0791 0.5580
H -3.3643 0.3133 -0.9591
H -3.3753 0.6665 0.8081
H -3.3403 -1.0455 0.2300
H -1.3767 -0.6087 -2.1013
H -1.3289 -1.9099 -0.8905
H 0.7216 -2.8269 -0.3658
H 0.7272 -3.1046 -3.3381
H -0.6609 -3.4503 -2.2157
H 0.8288 -4.3760 -2.0625
H 2.9029 -2.2212 -2.4111
H 2.8739 -3.5518 -1.1712
H 3.0843 -1.8983 -0.6644
H 0.8757 -2.4655 1.5047
H 3.0834 -1.0496 3.0792
H 3.2128 -1.3351 1.3619
H 3.0603 -2.7278 2.3696
H 0.9297 -1.4369 4.3075
H 1.0288 -3.1370 3.7026
H -0.4794 -2.2323 3.4840
H -1.3234 0.2080 2.2272
H -1.2545 -1.4623 1.5989
H 6.4569 -0.1869 -3.1328
H 6.4840 1.5623 -2.7226
H 4.1117 -0.3480 -2.0479
H 4.1998 0.8265 -3.4118
H 4.1421 1.3369 -1.6721
H 8.7651 0.3121 -1.3916
H 8.8594 -0.3073 1.1890
H 7.3041 -0.7058 3.0292
H 5.7732 -1.5012 2.5020
H 6.2525 1.5186 2.8681
H 5.3876 0.4550 4.0587
H 4.6827 0.7185 2.3982
