63
 
C 0.9010 -0.6430 -0.0020
N 0.6541 0.3474 -0.8757
C 1.4986 0.7422 -1.9965
C 2.8742 1.1675 -1.5001
C -0.5371 0.8718 -0.5192
C -0.9984 0.1824 0.5868
N -0.0888 -0.7591 0.9032
C -0.1620 -1.6957 2.0212
C 1.0842 -2.5729 2.0724
Au 2.6584 -1.8814 -0.0135
C 4.4159 -3.1199 -0.0250
N 5.7458 -2.7696 0.0051
C 6.2477 -1.3661 0.0859
C 5.3954 -0.7179 1.1734
C 5.7110 -1.4637 2.5028
C 7.1152 -1.0746 2.9665
C 8.1739 -1.4475 1.9119
C 7.7537 -1.0424 0.4765
C 6.4094 -3.9493 0.1397
C 5.4843 -4.9917 0.1564
N 4.2530 -4.4649 0.0352
C 2.9225 -5.1066 -0.0275
C 2.2498 -4.7877 -1.3933
C 2.8027 -5.6780 -2.5232
C 2.5217 -7.1479 -2.1930
C 3.2660 -7.5317 -0.9093
C 2.8330 -6.6308 0.2582
H 1.0267 1.5813 -2.5539
H 1.6082 -0.1201 -2.6893
H 2.7755 2.0427 -0.8239
H 3.5056 1.4533 -2.3679
H 3.3574 0.3267 -0.9483
H -1.0369 1.6893 -1.0223
H -1.9226 0.3576 1.1227
H -1.0651 -2.3338 1.8950
H -0.2511 -1.1362 2.9767
H 1.1226 -3.0780 1.1014
H 0.9710 -3.3287 2.8797
H 2.0007 -1.9699 2.2473
H 6.0678 -0.8869 -0.9007
H 4.3273 -0.7983 0.8762
H 5.6052 0.3688 1.2608
H 5.6764 -2.5737 2.3996
H 4.9632 -1.2044 3.2702
H 7.3653 -1.5777 3.9277
H 7.1054 0.0209 3.1469
H 8.3508 -2.5379 1.9326
H 9.1368 -0.9505 2.1962
H 8.5146 -1.3990 -0.2513
H 7.8329 0.0721 0.4557
H 7.4772 -4.0703 0.2606
H 5.6918 -6.0485 0.2674
H 2.3586 -4.6564 0.7937
H 2.3845 -3.7177 -1.6608
H 1.1563 -4.9718 -1.3256
H 3.8976 -5.5258 -2.6539
H 2.3016 -5.4193 -3.4808
H 2.8531 -7.8038 -3.0267
H 1.4236 -7.2950 -2.0657
H 4.3563 -7.4501 -1.0834
H 3.0321 -8.5909 -0.6574
H 3.3748 -6.8924 1.1904
H 1.7552 -6.8587 0.4316
