47
 
P 0.9714 0.0918 0.0275
C 0.2617 1.7913 0.3579
C -1.2483 2.0460 0.2826
C 0.8129 2.3217 1.6922
C 0.4429 -0.3172 -1.7092
C 0.9542 0.6287 -2.7929
C 0.8491 -1.7487 -2.0783
C 0.4928 -1.0284 1.4694
C -1.0310 -1.2266 1.5741
C 1.0531 -2.4702 1.3772
Au 3.4314 0.0918 0.0275
N 5.5314 0.0918 0.0275
C 6.2352 -0.3823 1.1010
O 5.6039 -0.9173 2.1687
C 4.2379 -0.9971 2.2502
C 7.6310 -0.2983 1.1117
C 8.2909 0.2972 0.0366
C 7.5545 0.7935 -1.0390
C 6.1627 0.6771 -1.0258
H 0.7108 2.4312 -0.4305
H -1.8231 1.5897 1.0966
H -1.6579 1.7590 -0.7037
H -1.4228 3.1385 0.4154
H 0.3670 1.7843 2.5549
H 0.5842 3.4048 1.8028
H 1.9195 2.2119 1.7334
H -0.6685 -0.2832 -1.7274
H 2.0606 0.5901 -2.8655
H 0.6067 1.6644 -2.6224
H 0.5295 0.3022 -3.7723
H 1.9511 -1.8801 -2.0184
H 0.5059 -2.0069 -3.1028
H 0.3417 -2.4739 -1.4264
H 0.8752 -0.5740 2.4046
H -1.4366 -1.7245 0.6636
H -1.5732 -0.3015 1.7455
H -1.2780 -1.8655 2.4502
H 0.6564 -3.0494 0.5290
H 0.7577 -3.0513 2.2787
H 2.1352 -2.5268 1.3175
H 3.9450 -1.5470 3.1661
H 3.9063 -1.5641 1.3694
H 3.7872 0.0130 2.2860
H 8.1969 -0.6740 1.9550
H 9.3695 0.3856 0.0438
H 8.0561 1.2743 -1.8688
H 5.5787 1.0757 -1.8445
