38
 
P -1.3500 0.0010 0.7980
N -1.1773 -1.1582 -0.5533
C -2.3818 -1.1539 -1.3885
C 0.0229 -1.3775 -1.3697
C 1.2848 -1.2516 -0.5993
N 1.7312 0.1246 -0.2219
C 1.1242 1.4927 -0.3450
C -0.2389 1.6975 -1.0302
N -1.4543 1.4451 -0.1976
C -1.7937 2.5569 0.6922
N -0.0130 -0.6971 1.8668
C -0.4901 -1.5793 2.9389
C 1.3252 -0.0418 2.1816
C 2.3980 0.0032 1.0523
Au -3.3226 0.0026 2.2679
C -5.0466 0.0040 3.5525
O -6.0233 0.0048 4.2803
H -3.2975 -1.1142 -0.7606
H -2.4342 -2.0873 -1.9889
H -2.3716 -0.2803 -2.0748
H 0.0630 -0.8227 -2.3201
H -0.0214 -2.4525 -1.6677
H 2.1129 -1.7447 -1.1505
H 1.1632 -1.9382 0.2756
H 1.8770 2.0960 -0.8945
H 1.0585 2.0178 0.6319
H -0.2723 1.1865 -2.0016
H -0.2585 2.7679 -1.3318
H -1.8821 3.5007 0.1112
H -1.0220 2.6948 1.4805
H -2.7821 2.3368 1.1799
H -1.4905 -1.2725 3.3114
H 0.2002 -1.5849 3.8163
H -0.5041 -2.6199 2.5593
H 1.1698 0.9689 2.5935
H 1.8905 -0.6154 2.9530
H 3.0602 -0.9026 1.0268
H 3.1328 0.8289 1.2079
