48
 
C 2.3270 0.0340 0.0000
N 1.5460 1.1410 -0.0180
C 2.0514 2.5137 -0.0309
C 3.0051 2.6779 -1.2108
C 3.5640 4.1000 -1.3343
C 4.4241 4.2144 -2.5925
C 0.2703 0.6757 -0.0105
C 0.3036 -0.6958 0.0293
C -0.8659 -1.4658 0.0589
C -2.0971 -0.7958 0.0299
C -2.1409 0.6127 -0.0112
C -0.9491 1.3700 -0.0264
N 1.5919 -1.1004 0.0365
C 2.1269 -2.4584 0.0550
C 1.7111 -3.2153 -1.2143
C 2.2026 -2.4839 -2.4671
C 1.7539 -3.2044 -3.7276
Au 4.4769 0.0580 0.0014
O 6.5267 0.0810 0.0028
C 7.2650 1.1611 -0.0031
N 8.5762 0.8468 -0.0127
C 8.5974 -0.5034 -0.0183
C 7.3000 -0.9715 -0.0020
H 2.6202 2.7015 0.9048
H 1.2104 3.2385 -0.0847
H 2.4231 2.4562 -2.1398
H 3.8664 1.9514 -1.0293
H 4.1798 4.3304 -0.4397
H 2.7401 4.8469 -1.4024
H 5.2491 3.4721 -2.5616
H 4.8590 5.2327 -2.6704
H 3.8061 4.0272 -3.4985
H -0.8510 -2.5441 0.1056
H -3.0171 -1.3690 0.0427
H -3.1039 1.1078 -0.0272
H -0.9990 2.4489 -0.0516
H 1.7531 -2.9895 0.9572
H 3.2439 -2.4105 0.1036
H 0.6105 -3.3135 -1.2729
H 2.1279 -4.2441 -1.1791
H 3.3112 -2.4190 -2.4434
H 1.7847 -1.4536 -2.4983
H 2.1588 -4.2374 -3.7395
H 2.1256 -2.6536 -4.6161
H 0.6434 -3.2400 -3.7677
H 6.8763 2.1708 0.0097
H 9.4982 -1.1021 -0.0393
H 6.9671 -2.0005 -0.0132
