27
 
C -0.1880 -1.3540 -0.0020
N -1.1190 -0.3612 0.0133
C -2.5734 -0.4351 -0.0233
C -0.4244 0.7984 0.0037
Cl -1.1249 2.4121 -0.0172
C 0.9166 0.5112 0.0025
Cl 2.2216 1.6916 0.0277
N 1.0611 -0.8290 -0.0104
C 2.3172 -1.5705 0.0279
Au -0.4902 -3.4826 -0.0101
O -0.7783 -5.5123 -0.0177
C -0.1801 -6.0023 -1.1646
C 1.2687 -5.6203 -1.2403
C -0.5028 -7.4966 -1.2822
H -2.9253 -1.4843 -0.0394
H -2.9379 0.0877 -0.9388
H -2.9900 0.0989 0.8571
H 3.1849 -0.8760 0.0581
H 2.4064 -2.2144 -0.8672
H 2.3548 -2.1943 0.9470
H -0.7107 -5.5144 -2.0172
H 1.8306 -6.1483 -0.4478
H 1.3103 -4.4955 -1.0756
H 1.6500 -5.9472 -2.2405
H -0.0388 -8.0659 -0.4527
H -0.1717 -7.9057 -2.2590
H -1.6091 -7.6441 -1.2204
