34
 
C 0.9010 -0.6430 -0.0020
N -0.3526 -1.1195 0.0256
C -0.7469 -2.5191 -0.0042
C -1.1620 -0.0457 0.0272
C -0.3713 1.0869 0.0132
N 0.9299 0.7094 -0.0142
C 2.1014 1.5677 -0.0370
C 1.9730 2.9723 -0.0554
C 3.1049 3.7922 -0.1368
C 4.3803 3.2294 -0.2035
C 4.5290 1.8488 -0.1509
C 3.4074 1.0323 -0.0506
Au 2.6584 -1.8814 -0.0135
N 4.3750 -3.0911 -0.0247
C 5.4434 -2.6886 -0.7631
C 6.5361 -3.5489 -0.9314
Cl 7.8253 -3.1457 -2.0512
C 6.5656 -4.7601 -0.2350
C 5.4875 -5.1191 0.5748
C 4.3654 -4.2876 0.6213
H 0.1567 -3.1701 -0.0215
H -1.3444 -2.7115 -0.9231
H -1.3621 -2.7565 0.8865
H -2.2439 -0.0788 0.0297
H -0.7404 2.1022 0.0185
H 1.0058 3.4486 -0.0123
H 2.9919 4.8668 -0.1587
H 5.2557 3.8587 -0.2845
H 5.5149 1.4007 -0.1868
H 3.6085 0.0079 0.0259
H 5.3846 -1.7639 -1.3231
H 7.4117 -5.4288 -0.3324
H 5.5105 -6.0433 1.1381
H 3.5117 -4.5598 1.2279
