38
 
C 0.9010 -0.6430 -0.0020
N -0.3623 -1.1113 0.0793
C -0.8126 -2.4928 0.0554
C -1.1704 -0.0400 0.0563
C -0.3864 1.0866 -0.0286
N 0.9148 0.7115 -0.0859
C 2.0681 1.5885 -0.1271
C 1.9170 2.9962 -0.1234
C 3.0353 3.8358 -0.1659
C 4.3185 3.2912 -0.1994
C 4.4865 1.9077 -0.1807
C 3.3757 1.0635 -0.1450
Au 2.6584 -1.8814 -0.0135
N 4.3750 -3.0911 -0.0247
C 4.4044 -4.2655 0.6606
O 3.3273 -4.6488 1.3758
C 2.1574 -3.9207 1.3664
C 5.5951 -5.0077 0.7200
C 6.7307 -4.5373 0.0534
C 6.6724 -3.3335 -0.6477
C 5.4799 -2.6084 -0.6552
H 0.0287 -3.1646 -0.0444
H -1.4231 -2.6683 -0.8567
H -1.3917 -2.7375 0.9645
H -2.2522 -0.0767 0.0790
H -0.7637 2.0984 -0.0465
H 0.9443 3.4644 -0.0863
H 2.9075 4.9115 -0.1733
H 5.1842 3.9396 -0.2357
H 5.4819 1.4844 -0.1952
H 3.5640 0.0170 -0.1250
H 1.4301 -4.4186 2.0434
H 1.8170 -3.9127 0.3410
H 2.2956 -2.8869 1.6972
H 5.6558 -5.9219 1.2967
H 7.6598 -5.0927 0.0934
H 7.5452 -2.9588 -1.1679
H 5.4216 -1.6674 -1.1864
