81
 
P 1.0863 -0.0467 -0.0195
C 0.3355 -1.6751 -0.8205
C -1.2004 -1.7614 -0.9199
C 0.8642 -1.9690 -2.2590
C 0.8227 -2.9241 -0.0571
C 0.5714 -0.0386 1.8840
C 1.0996 -1.1723 2.8118
C 1.0843 1.2503 2.5612
C -0.9677 -0.0267 2.0863
C 0.4886 1.4379 -1.2407
C -1.0673 1.6725 -1.4263
C 0.9667 2.8144 -0.7163
C 1.0285 1.3486 -2.6882
Au 3.5463 -0.0467 -0.0195
C 5.6963 -0.0467 -0.0195
N 6.4690 -1.1649 -0.0337
C 5.9711 -2.5396 -0.0412
C 6.3902 -3.3108 1.2193
C 5.9231 -2.6421 2.5158
C 4.4010 -2.5141 2.5764
C 7.7535 -0.7216 -0.0458
C 7.7542 0.6458 -0.0626
C 8.9458 1.3898 -0.0522
C 10.1600 0.6944 -0.0308
C 10.1695 -0.7129 -0.0280
C 8.9605 -1.4396 -0.0408
N 6.4826 1.0982 -0.0738
C 6.1482 2.5509 -0.0298
C 6.0078 3.0331 1.4107
C 5.8535 2.0569 2.4029
C 5.5922 2.3805 3.7116
C 5.5100 3.7070 4.1002
C 5.7281 4.7249 3.1626
C 5.9699 4.4015 1.8088
H -1.6070 -1.0398 -1.6190
H -1.7329 -1.6823 0.0209
H -1.5094 -2.7426 -1.3373
H 0.4204 -1.3695 -3.0498
H 0.5348 -2.9816 -2.5951
H 1.9730 -1.9598 -2.3188
H 0.3870 -2.9965 0.9253
H 1.9344 -2.9840 -0.0300
H 0.4535 -3.8615 -0.5344
H 2.1915 -1.1780 2.8563
H 0.7114 -2.1805 2.6681
H 0.7506 -0.9964 3.8577
H 2.1900 1.3111 2.5268
H 0.7840 1.2734 3.6378
H 0.6325 2.1550 2.1381
H -1.4302 -0.9919 1.8591
H -1.4595 0.8008 1.5369
H -1.2327 0.0960 3.1619
H -1.6111 1.9685 -0.5062
H -1.6299 0.9065 -1.9669
H -1.2429 2.5309 -2.1262
H 0.5466 3.0399 0.2737
H 0.5756 3.6469 -1.3574
H 2.0669 2.9094 -0.7145
H 0.5497 0.5690 -3.2746
H 2.1301 1.2758 -2.7247
H 0.7307 2.2471 -3.2825
H 6.3470 -3.0623 -0.9438
H 4.8625 -2.5300 -0.1148
H 7.4906 -3.4116 1.2631
H 5.9725 -4.3392 1.1631
H 6.3827 -1.6358 2.6228
H 6.2793 -3.2647 3.3690
H 3.9861 -1.8316 1.7507
H 4.1409 -2.1073 3.5784
H 3.9536 -3.5323 2.5104
H 8.9605 2.4709 -0.0531
H 11.0924 1.2471 -0.0172
H 11.1189 -1.2324 -0.0124
H 8.9941 -2.5165 -0.0396
H 5.2267 2.7798 -0.6036
H 6.9439 3.1310 -0.5565
H 5.8928 1.0108 2.1920
H 5.4369 1.5679 4.4054
H 5.2775 3.9293 5.1311
H 5.6840 5.7557 3.4991
H 6.1140 5.2206 1.1069
