108
 
C 2.3270 0.0340 0.0000
N 1.5496 -0.6422 0.8906
C 1.9931 -1.5560 1.9573
C 3.3223 -1.1099 2.5480
C 3.9200 -2.0122 3.6132
C 5.3101 -1.4786 3.9790
C 0.2746 -0.3482 0.5354
C 0.2613 0.5194 -0.5332
C -0.9424 0.9780 -1.0975
C -2.1437 0.4837 -0.5821
C -2.1348 -0.4185 0.4961
C -0.9216 -0.8254 1.0854
N 1.5190 0.8233 -0.9160
C 1.6805 1.8921 -2.0616
C 1.5483 1.4875 -3.6190
C 1.5579 0.1398 -3.7446
C 1.5411 -0.5638 -4.9204
C 1.4124 0.0752 -6.1264
C 1.3228 1.4694 -6.1420
C 1.4391 2.2147 -4.9059
Au 4.4769 0.0580 0.0014
C 6.6267 0.0821 0.0028
N 7.4012 -0.9320 0.0416
C 6.8882 -2.2726 0.0718
C 7.7014 -3.4441 -0.2625
C 8.9841 -3.4633 -1.1965
C 9.6608 -4.8340 -1.5503
C 8.5089 -2.9907 -2.5729
C 7.1804 -4.6754 0.0982
C 5.9492 -4.7836 0.7217
C 5.0426 -3.7163 0.6970
C 5.4192 -2.4878 0.1128
C 4.4855 -1.9166 -1.1683
C 5.5083 -2.0324 -2.2834
C 3.0168 -2.4226 -1.5675
C 8.7886 -0.4583 0.1119
C 8.6866 0.9443 -0.4563
N 7.3326 1.3396 -0.1827
C 6.9720 2.5786 0.5206
C 5.7445 3.3160 0.2146
C 4.6949 3.0059 -0.8736
C 4.0982 4.2960 -1.5568
C 5.1595 2.0905 -1.9994
C 5.4437 4.4771 0.9642
C 6.2536 4.9505 1.9566
C 7.4294 4.3115 2.2475
C 7.8416 3.1499 1.5695
C 9.2394 2.6365 2.0015
C 10.3560 3.4063 1.2241
C 9.5949 2.5927 3.5046
H 2.1498 -2.5511 1.4972
H 1.2345 -1.6357 2.7615
H 3.2679 -0.0567 2.9024
H 4.0224 -1.2090 1.7434
H 4.0306 -3.0462 3.2207
H 3.2602 -2.0310 4.5002
H 5.9828 -1.4566 3.0886
H 5.7699 -2.1269 4.7489
H 5.2260 -0.4419 4.3707
H -0.9748 1.6677 -1.9326
H -3.0825 0.7872 -1.0282
H -3.0751 -0.8057 0.8613
H -0.9331 -1.5123 1.9181
H 2.5980 2.3547 -1.9319
H 0.9972 2.7525 -1.8627
H 1.5651 -0.3870 -2.8639
H 1.5959 -1.6311 -4.8570
H 1.3535 -0.5519 -7.0133
H 1.1559 1.9138 -7.1294
H 1.3960 3.3010 -5.0437
H 9.8074 -2.8340 -0.8399
H 8.9483 -5.5731 -1.9836
H 10.2103 -5.2909 -0.7081
H 10.4154 -4.6948 -2.3672
H 7.7204 -3.6996 -2.9271
H 9.2901 -2.9979 -3.3572
H 8.1699 -1.9548 -2.5059
H 7.7121 -5.5844 -0.1190
H 5.6424 -5.7620 1.0478
H 4.0371 -3.9723 0.9832
H 4.2721 -0.8870 -1.5266
H 5.8765 -3.0563 -2.2010
H 6.2852 -1.2774 -2.0468
H 5.3926 -1.7690 -3.3384
H 2.8067 -3.4396 -1.8805
H 2.6841 -1.9322 -2.5014
H 2.1953 -2.1845 -0.8637
H 9.5984 -0.8898 -0.4745
H 9.1149 -0.4482 1.1859
H 8.8420 1.0057 -1.5490
H 9.4933 1.5616 -0.1509
H 3.8705 2.5222 -0.3171
H 4.8826 4.9914 -1.9084
H 3.3776 4.8054 -0.8787
H 3.4790 4.1061 -2.4580
H 6.0319 2.5606 -2.5057
H 4.4245 1.9233 -2.8125
H 5.2921 1.0948 -1.6223
H 4.5662 5.0774 0.7964
H 5.9639 5.8447 2.4955
H 8.0202 4.7573 3.0286
H 9.2840 1.5663 1.8381
H 10.3534 4.4851 1.4573
H 10.2883 3.3829 0.1147
H 11.3453 2.9562 1.4602
H 9.4324 3.5367 4.0503
H 10.6826 2.3643 3.6037
H 9.0704 1.7562 4.0157
