53
 
C 2.3270 0.0340 0.0000
N 1.5379 1.1314 -0.0774
C 2.0247 2.5092 -0.0736
C 2.9695 2.7666 -1.2420
C 2.2798 2.6024 -2.5947
C 3.2798 2.8827 -3.7099
C 0.2653 0.6610 -0.0344
C 0.3069 -0.7080 0.0436
C -0.8572 -1.4849 0.0650
C -2.0928 -0.8221 0.0254
C -2.1451 0.5864 -0.0147
C -0.9580 1.3497 -0.0434
N 1.5971 -1.1042 0.0870
C 2.1355 -2.4652 0.0917
C 1.7493 -3.2103 -1.2049
C 2.2574 -2.4490 -2.4395
C 1.8748 -3.1444 -3.7378
Au 4.4769 0.0580 0.0014
N 6.5767 0.0815 0.0028
C 7.0213 -0.9918 -0.9066
C 6.9869 1.3026 -0.7172
C 7.1334 -0.0460 1.3503
H 2.6007 2.6718 0.8670
H 1.1837 3.2330 -0.0782
H 3.8285 2.0606 -1.1794
H 3.3571 3.8043 -1.1514
H 1.4272 3.3124 -2.6711
H 1.8922 1.5655 -2.7041
H 3.6713 3.9187 -3.6174
H 2.7891 2.7697 -4.6973
H 4.1305 2.1699 -3.6450
H -0.8321 -2.5631 0.1144
H -3.0099 -1.3995 0.0356
H -3.1108 1.0768 -0.0265
H -1.0158 2.4285 -0.0743
H 1.7696 -3.0099 0.9852
H 3.2465 -2.4215 0.1349
H 0.6513 -3.3315 -1.2840
H 2.1858 -4.2325 -1.1826
H 3.3632 -2.3596 -2.3854
H 1.8158 -1.4294 -2.4634
H 2.3187 -4.1605 -3.7742
H 2.2598 -2.5511 -4.5946
H 0.7690 -3.2134 -3.8239
H 6.5783 -0.8914 -1.9226
H 6.6907 -1.9732 -0.5076
H 8.1343 -1.0197 -0.9829
H 6.5402 1.3698 -1.7332
H 8.0970 1.3877 -0.7735
H 6.6228 2.1889 -0.1531
H 6.7947 -0.9860 1.8277
H 6.7830 0.8106 1.9687
H 8.2456 -0.0131 1.3207
