84
 
P 0.9201 -0.0067 -0.0598
C 0.1552 0.4087 1.7096
C -1.3816 0.4215 1.8332
C 0.6587 -0.5365 2.8403
C 0.6327 1.7907 2.2177
C 0.4475 1.4480 -1.2884
C 1.0563 2.8212 -0.9372
C 0.9574 1.1921 -2.7290
C -1.0881 1.6516 -1.4589
C 0.3879 -1.8129 -0.5180
C -1.1529 -1.9597 -0.5674
C 0.8724 -2.2063 -1.9308
C 0.9224 -2.9216 0.4069
Au 3.3801 -0.0067 -0.0598
P 5.8401 -0.0067 -0.0598
C 6.5956 0.7485 -1.5251
C 6.1323 2.0351 -1.8657
C 6.5295 2.6564 -3.0600
C 5.9675 3.9935 -3.4586
C 7.4288 1.9979 -3.9065
C 7.8989 0.7240 -3.5763
C 7.4724 0.0916 -2.4034
C 6.3713 1.1226 1.2286
C 5.4382 1.7443 2.0582
C 5.8650 2.6614 3.0329
C 4.8679 3.3898 3.8779
C 7.2354 2.9228 3.1928
C 8.1730 2.2664 2.3937
C 7.7442 1.3691 1.4131
C 6.2795 -1.7557 -0.0681
C 7.6303 -2.1542 -0.0559
C 7.9758 -3.5118 -0.1394
C 9.4161 -3.9308 -0.2393
C 6.9596 -4.4767 -0.1695
C 5.6165 -4.0854 -0.1112
C 5.2770 -2.7273 -0.0673
H -1.8424 -0.5611 1.7876
H -1.8745 1.0822 1.1394
H -1.6868 0.8000 2.8304
H 0.2314 -1.5371 2.8128
H 0.2821 -0.1861 3.8310
H 1.7674 -0.5727 2.9171
H 0.1503 2.6000 1.6888
H 1.7425 1.8783 2.2586
H 0.2583 1.9978 3.2458
H 2.1622 2.7795 -0.9409
H 0.7133 3.2880 -0.0295
H 0.7187 3.5782 -1.6820
H 2.0588 1.0819 -2.7634
H 0.6812 2.0497 -3.3888
H 0.4600 0.3614 -3.2390
H -1.5885 2.0129 -0.5652
H -1.6057 0.7702 -1.8789
H -1.3111 2.4708 -2.1738
H -1.6302 -1.2004 -1.2027
H -1.6053 -1.9690 0.4214
H -1.4609 -2.9443 -0.9761
H 0.4620 -1.5621 -2.7069
H 0.4729 -3.2096 -2.2115
H 1.9760 -2.2544 -2.0037
H 0.5161 -2.8881 1.4105
H 2.0266 -2.9304 0.4430
H 0.5731 -3.9163 0.0460
H 5.4178 2.5366 -1.2219
H 5.2537 4.3823 -2.7009
H 5.4144 3.8883 -4.4180
H 6.7826 4.7333 -3.5937
H 7.7464 2.4612 -4.8330
H 8.5743 0.2115 -4.2485
H 7.8155 -0.9097 -2.2233
H 4.3862 1.5247 1.9321
H 3.8314 3.0556 3.6604
H 4.9417 4.4715 3.6413
H 5.0764 3.2355 4.9573
H 7.5762 3.6343 3.9354
H 9.2305 2.4656 2.5249
H 8.4853 0.8796 0.7925
H 8.4163 -1.4097 -0.0236
H 10.1032 -3.0602 -0.1686
H 9.5757 -4.4072 -1.2306
H 9.6799 -4.6565 0.5579
H 7.2088 -5.5295 -0.2363
H 4.8381 -4.8365 -0.1192
H 4.2384 -2.4247 -0.0362
