34
 
C 0.9010 -0.6430 -0.0020
N -0.3497 -1.1180 0.0796
C -0.7394 -2.5195 0.0701
C -1.1606 -0.0458 0.0546
C -0.3720 1.0858 -0.0272
N 0.9291 0.7090 -0.0757
C 2.0989 1.5746 -0.1125
C 1.9643 2.9797 -0.1330
C 3.0929 3.8082 -0.1830
C 4.3733 3.2555 -0.2185
C 4.5296 1.8763 -0.1696
C 3.4108 1.0513 -0.0986
Au 2.6584 -1.8814 -0.0135
N 4.3750 -3.0911 -0.0247
C 5.4693 -2.6526 -0.7020
C 6.5769 -3.4925 -0.8566
C 6.5778 -4.7432 -0.2341
F 7.6480 -5.5662 -0.3603
C 5.4669 -5.1482 0.5090
C 4.3470 -4.3141 0.5690
H 0.1667 -3.1674 0.0385
H -1.3388 -2.7168 -0.8486
H -1.3516 -2.7579 0.9607
H -2.2422 -0.0794 0.0794
H -0.7426 2.1003 -0.0463
H 0.9950 3.4517 -0.1044
H 2.9746 4.8825 -0.1980
H 5.2465 3.8916 -0.2693
H 5.5202 1.4366 -0.1788
H 3.6228 0.0312 -0.0128
H 5.4384 -1.6956 -1.2066
H 7.4179 -3.1840 -1.4648
H 5.4651 -6.1051 1.0151
H 3.4701 -4.6188 1.1248
