21
 
C -0.3280 -1.0820 0.0030
N 0.9510 -0.6650 0.0482
H 1.8071 -1.2601 0.0926
C 0.8873 0.6791 0.0118
Cl 2.2796 1.7442 0.0348
C -0.4383 1.0548 -0.0489
Cl -1.0717 2.6889 -0.1083
N -1.1956 -0.0553 -0.0570
Au -0.9444 -3.1417 0.0167
N -1.5465 -5.1535 0.0300
C -2.8550 -5.4737 -0.1298
Cl -4.0053 -4.1952 -0.4576
C -3.2605 -6.8115 -0.0463
C -2.3072 -7.7965 0.2323
C -0.9667 -7.4401 0.3936
C -0.6000 -6.0992 0.2680
H -2.2370 -0.1155 -0.0967
H -4.2989 -7.0850 -0.1805
H -2.6053 -8.8327 0.3278
H -0.2218 -8.1906 0.6266
H 0.4295 -5.7987 0.4143
