55
 
P 1.0406 -0.0881 -0.0244
C 0.2674 1.1415 1.3099
C -1.2718 1.2146 1.4217
C 0.7810 0.8685 2.7542
C 0.7442 2.5950 1.0714
C 0.5740 0.5791 -1.8086
C 1.1871 1.9472 -2.1763
C 1.0856 -0.3554 -2.9334
C -0.9607 0.6758 -2.0588
C 0.5114 -1.8867 0.4629
C -1.0300 -2.0453 0.4942
C 1.0006 -2.9181 -0.5769
C 1.0538 -2.3977 1.8106
Au 3.5006 -0.0881 -0.0244
N 5.6006 -0.0881 -0.0244
C 6.2435 0.4130 -1.1142
C 7.6399 0.3150 -1.2205
C 8.3675 0.8059 -2.4380
C 8.3525 -0.2883 -0.1771
C 7.6729 -0.7827 0.9380
C 6.2800 -0.6797 0.9934
H -1.7297 0.3343 1.8674
H -1.7771 1.4553 0.4957
H -1.5679 2.0295 2.1160
H 0.3510 -0.0155 3.2225
H 0.4210 1.6617 3.4522
H 1.8905 0.8632 2.8231
H 0.2482 3.0495 0.2211
H 1.8539 2.6805 1.0398
H 0.3961 3.2750 1.8827
H 2.2927 1.9081 -2.1458
H 0.8352 2.8022 -1.6183
H 0.8675 2.2332 -3.2056
H 2.1858 -0.4768 -2.8998
H 0.8210 0.0666 -3.9329
H 0.5804 -1.3257 -2.9689
H -1.4580 1.4352 -1.4577
H -1.4782 -0.2968 -1.9777
H -1.1813 1.0212 -3.0914
H -1.5102 -1.6977 -0.4317
H -1.4849 -1.5658 1.3591
H -1.3333 -3.1057 0.6194
H 0.5767 -2.7475 -1.5659
H 0.6211 -3.9357 -0.3217
H 2.1051 -2.9743 -0.6272
H 0.6406 -1.8859 2.6731
H 2.1606 -2.3741 1.8409
H 0.7158 -3.4465 1.9793
H 5.6585 0.8539 -1.9116
H 7.6746 1.2726 -3.1699
H 8.8649 -0.0556 -2.9335
H 9.1397 1.5504 -2.1524
H 9.4299 -0.3857 -0.2354
H 8.2203 -1.2617 1.7392
H 5.7372 -1.0921 1.8333
