26
 
N -1.3979 -0.1091 -0.0645
C -0.6237 -1.2007 0.2010
C 0.7070 -1.0932 0.6275
Cl 1.6023 -2.4388 1.3219
C 1.3116 0.1176 0.4964
C 0.6179 1.1701 -0.0651
C -0.7680 1.0965 -0.2036
Au -3.4725 -0.2125 -0.2809
N -5.5520 -0.2862 -0.5042
C -6.3072 0.8514 -0.6339
C -7.6932 0.8361 -0.4726
C -8.3487 -0.3559 -0.4854
C -9.8238 -0.3906 -0.3144
C -7.5930 -1.5064 -0.6618
C -6.2048 -1.4782 -0.5133
H -1.0268 -2.1775 0.1245
H 2.3131 0.2095 0.8109
H 1.1489 2.0406 -0.3467
H -1.3312 1.9739 -0.4344
H -5.8517 1.7963 -0.8069
H -8.2712 1.7139 -0.3620
H -10.2350 0.6130 -0.1780
H -10.0741 -0.9778 0.5762
H -10.2912 -0.8470 -1.1760
H -8.0939 -2.4119 -0.8695
H -5.6495 -2.3829 -0.4412
