35
 
P 1.0759 -0.0437 -0.0482
O -0.1083 1.1279 0.2687
C 0.4179 1.8748 1.3756
O 0.5997 -0.4335 -1.6377
C 1.1887 -1.6682 -1.9778
O 0.7524 -0.8203 1.4447
C 1.3543 -2.0768 1.4870
Au 3.5359 -0.0437 -0.0482
P 5.9959 -0.0437 -0.0482
O 6.8373 1.4337 0.2611
C 8.2335 1.3292 0.2393
C 8.6736 -0.0913 -0.0568
C 10.2047 -0.1568 -0.0701
C 8.0506 -0.9927 1.0772
O 6.6454 -0.8209 1.3095
O 6.6469 -0.2158 -1.6025
C 8.0520 -0.4645 -1.4570
H 0.1005 2.9342 1.3466
H 1.5422 1.9361 1.4359
H 0.0652 1.4273 2.3307
H 0.7307 -2.0352 -2.9189
H 0.9772 -2.4760 -1.2522
H 2.2812 -1.5524 -2.1404
H 1.2191 -2.4662 2.5177
H 2.4462 -2.0093 1.2922
H 0.8190 -2.7964 0.8410
H 8.6175 1.6629 1.2286
H 8.6177 2.0306 -0.5340
H 10.6065 0.1703 0.9151
H 10.6068 0.5369 -0.8422
H 10.5545 -1.1841 -0.2844
H 8.5571 -0.7301 2.0322
H 8.2665 -2.0601 0.8642
H 8.5587 0.1583 -2.2270
H 8.2687 -1.5280 -1.6883
