42
 
P 1.0508 0.0203 0.0837
O -0.1554 -0.8191 0.9309
C 0.3693 -2.1481 1.0724
O 0.5877 1.5981 0.5308
C 1.1702 2.4955 -0.3855
O 0.7400 -0.9058 -1.3250
C 1.3451 -0.3314 -2.4421
Au 3.5108 0.0203 0.0837
P 5.9708 0.0203 0.0837
O 7.1797 -1.1826 0.1541
C 6.5967 -2.2761 -0.5701
C 7.2871 -3.6108 -0.3351
O 6.3194 0.3341 -1.5574
C 6.0242 1.6622 -1.8698
C 6.6390 1.9631 -3.2360
O 6.4211 0.8877 1.4796
C 5.8690 0.2455 2.6013
C 6.2946 1.0040 3.8544
H 0.0442 -2.6180 2.0206
H 1.4932 -2.2302 1.1115
H 0.0299 -2.7829 0.2227
H 0.7139 3.4964 -0.2423
H 0.9463 2.2512 -1.4411
H 2.2654 2.5796 -0.2157
H 1.2170 -1.0475 -3.2813
H 2.4365 -0.1888 -2.2873
H 0.8055 0.5795 -2.7607
H 6.6677 -2.0782 -1.6630
H 5.5224 -2.4615 -0.3016
H 8.3608 -3.5422 -0.5937
H 6.8151 -4.3720 -1.0021
H 7.1551 -3.9516 0.7124
H 6.4647 2.3809 -1.1394
H 4.9199 1.7694 -1.9328
H 7.7504 1.9184 -3.1851
H 6.3397 2.9745 -3.5786
H 6.2956 1.2138 -3.9823
H 6.2496 -0.7972 2.6962
H 4.7560 0.2559 2.5501
H 7.4016 0.9899 3.9558
H 5.8489 0.5323 4.7555
H 5.9557 2.0608 3.7989
