34
 
N -1.3934 -0.1421 -0.0455
C -0.6643 1.0457 -0.2783
C 0.7331 0.9978 -0.4089
C 1.4917 2.1870 -0.9652
C 1.3799 -0.0784 -0.0484
C 0.6831 -1.1722 0.4756
C -0.7209 -1.2452 0.3267
Au -3.4773 -0.2083 -0.2782
N -5.5578 -0.2912 -0.5105
C -6.3127 -1.4134 -0.5937
N -7.5960 -1.0039 -0.7223
C -8.7785 -1.8599 -0.8437
C -8.6565 -3.2755 -0.8342
C -9.7381 -4.0675 -1.2442
C -10.9242 -3.5361 -1.3669
C -11.1158 -2.1806 -1.0792
C -9.9988 -1.3231 -0.9648
C -7.5843 0.3054 -0.7192
C -6.3725 0.7274 -0.5977
H -1.1596 1.9515 -0.3557
H 0.8013 2.9704 -1.2049
H 2.0184 1.8942 -1.8517
H 2.1919 2.5402 -0.2359
H 2.4074 -0.1170 -0.1505
H 1.1944 -1.9253 0.9667
H -1.2238 -2.1313 0.5054
H -5.9744 -2.3929 -0.5670
H -7.7730 -3.7195 -0.5299
H -9.6008 -5.0708 -1.4484
H -11.7190 -4.1194 -1.6753
H -12.0724 -1.8076 -0.9540
H -10.1189 -0.2963 -0.9727
H -8.4174 0.9083 -0.8016
H -6.0891 1.7189 -0.5709
