29
 
N -0.6590 -1.2280 -0.0510
C -1.4299 -0.1254 -0.0965
C -2.8922 -0.3335 -0.2958
C -0.8263 1.1428 -0.0327
C 0.5706 1.2271 0.0723
C 1.3383 0.0606 0.1136
C 0.6943 -1.1729 0.0472
Au -1.5756 -3.1044 -0.2726
N -2.4923 -4.9807 -0.4941
C -3.8239 -5.0234 -0.7462
N -4.4697 -6.2136 -0.7924
C -3.8134 -7.3795 -0.5428
O -4.4837 -8.5563 -0.5332
C -5.8397 -8.6551 -0.7759
C -2.4393 -7.3512 -0.2740
C -1.7808 -6.1174 -0.2857
H -3.0994 -1.4465 -0.3706
H -3.1932 0.1589 -1.2460
H -3.4545 0.1214 0.5448
H -1.4158 2.0481 -0.0899
H 1.0632 2.1907 0.1057
H 2.4185 0.1076 0.1810
H 1.2660 -2.0923 0.0585
H -4.3656 -4.1062 -0.9320
H -6.1526 -9.7168 -0.7116
H -6.0727 -8.2738 -1.7934
H -6.4115 -8.0692 -0.0229
H -1.8985 -8.2586 -0.0346
H -0.7298 -6.0539 -0.0343
