26
 
N -0.6590 -1.2280 -0.0510
C 0.6960 -1.1207 -0.0624
F 1.4571 -2.2268 -0.2455
C 1.2986 0.1170 0.1925
C 0.4928 1.2369 0.4183
C -0.8967 1.1078 0.3933
C -1.4582 -0.1503 0.1690
Au -1.5756 -3.1044 -0.2726
N -2.4923 -4.9807 -0.4941
C -3.8361 -5.0636 -0.2991
C -4.4825 -6.3086 -0.3360
C -5.9609 -6.4262 -0.1045
C -3.7168 -7.4555 -0.5796
C -2.3419 -7.3434 -0.7999
C -1.7406 -6.0822 -0.7562
H 2.3764 0.2073 0.2305
H 0.9421 2.2011 0.6192
H -1.5322 1.9680 0.5614
H -2.5333 -0.2743 0.1648
H -4.3919 -4.1589 -0.0870
H -6.4336 -5.4303 0.0323
H -6.1542 -7.0350 0.8044
H -6.4348 -6.9214 -0.9778
H -4.1852 -8.4322 -0.5984
H -1.7474 -8.2280 -0.9873
H -0.6732 -5.9827 -0.9003
