23
 
N -1.3898 -0.1127 -0.0487
C -0.7491 1.1159 0.2506
C 0.6415 1.2283 0.1078
C 1.3678 0.1500 -0.0334
C 0.7576 -1.1074 -0.0300
C -0.6418 -1.2086 -0.1906
Au -3.4779 -0.2003 -0.2792
N -5.5600 -0.2980 -0.5105
C -6.2362 -1.5385 -0.4991
C -7.5642 -1.6142 -0.9427
C -8.2606 -0.5176 -1.1035
Cl -9.9387 -0.6098 -1.6800
C -7.6781 0.7224 -0.8204
C -6.2776 0.8235 -0.6681
H -1.3022 1.9323 0.5731
H 1.0965 2.1564 0.1148
H 2.3924 0.2328 -0.1450
H 1.3318 -1.9613 0.0854
H -1.0839 -2.1187 -0.4100
H -5.7534 -2.3944 -0.1664
H -7.9986 -2.5304 -1.1433
H -8.2744 1.5638 -0.7268
H -5.8107 1.7479 -0.6797
