20
 
N -0.6790 1.1930 0.0010
C 0.6785 1.2056 -0.0575
F 1.3342 2.3907 -0.1092
C 1.3918 0.0045 -0.0571
C 0.6916 -1.2030 -0.0010
F 1.3657 -2.3793 -0.0014
C -0.7052 -1.1940 0.0558
C -1.3810 0.0306 0.0583
F -2.7345 0.0654 0.1127
Au -1.6914 3.0329 0.0055
N -2.7038 4.8727 0.0100
C -4.0270 5.0901 0.0670
O -4.2901 6.3801 0.0645
C -3.1390 7.0182 0.0076
C -2.1298 6.0819 -0.0295
H 2.4735 0.0104 -0.0993
H -1.2563 -2.1246 0.0979
H -4.7741 4.3095 0.1094
H -3.0215 8.0936 -0.0025
H -1.0637 6.2618 -0.0723
