41
 
P 1.0436 -0.0821 0.0369
O -0.0079 -0.1099 -1.3178
C 0.5109 0.9178 -2.1765
C -0.1955 0.9955 -3.5176
O 0.5347 -1.4738 0.8789
C 0.7912 -2.6298 0.1405
C 2.2922 -2.8557 -0.0350
O 0.5711 1.4863 0.5637
C -0.8501 1.4749 0.7195
C -1.3827 2.8549 1.0481
Au 3.5036 -0.0821 0.0369
N 5.6036 -0.0821 0.0369
C 6.2269 -0.0752 -1.1673
C 7.6259 -0.1895 -1.2458
O 8.2876 -0.2303 -2.4310
C 7.6919 -0.1583 -3.6745
C 8.3523 -0.2962 -0.0542
C 7.6883 -0.2943 1.1758
C 6.2954 -0.1906 1.2010
H 1.6029 0.7943 -2.3884
H 0.3467 1.9229 -1.7292
H 0.0439 0.1130 -4.1426
H 0.1610 1.9087 -4.0515
H -1.2893 1.0891 -3.3675
H 0.2245 -2.6331 -0.8156
H 0.3838 -3.4722 0.7427
H 2.7506 -2.0732 -0.6731
H 2.4507 -3.8356 -0.5211
H 2.7778 -2.8389 0.9634
H -1.1607 0.7619 1.5130
H -1.3945 1.2320 -0.2190
H -0.9859 3.1942 2.0225
H -2.4946 2.8062 1.1000
H -1.1068 3.5724 0.2451
H 5.6171 -0.0089 -2.0571
H 8.4644 -0.2788 -4.4600
H 7.1959 0.8274 -3.8034
H 6.9457 -0.9746 -3.7916
H 9.4302 -0.3964 -0.0815
H 8.2458 -0.3930 2.0983
H 5.7639 -0.2194 2.1428
