18
 
O -0.3280 -1.0820 0.0030
C 0.8982 -0.6602 -0.1807
C 0.8928 0.7203 -0.1244
C -0.4202 1.0953 0.0929
C -1.1465 -0.0743 0.1731
Au -0.9157 -3.0459 0.0160
N -1.5178 -5.0577 0.0293
C -0.7627 -6.1524 -0.1517
O -1.4979 -7.2430 -0.0938
C -2.7431 -6.8694 0.1197
C -2.7708 -5.4954 0.2058
H 1.7574 -1.2988 -0.3348
H 1.7438 1.3794 -0.2309
H -0.8034 2.1032 0.1815
H -2.2131 -0.1654 0.3305
H 0.3066 -6.1385 -0.3124
H -3.5900 -7.5376 0.2022
H -3.6333 -4.8610 0.3623
