77
 
N -0.6790 1.1930 0.0010
C -0.1800 0.6806 -1.1758
F -0.3110 1.3513 -2.3414
C 0.4995 -0.5492 -1.2087
C 0.6852 -1.2671 -0.0366
F 1.3500 -2.4537 -0.0582
C 0.1876 -0.7533 1.1564
C -0.4968 0.4818 1.1609
F -0.9663 0.9615 2.3357
Au -1.6914 3.0329 0.0055
C -2.7279 4.9165 0.0101
N -4.1446 4.9981 0.1489
C -5.3797 4.0666 0.1134
C -6.7345 4.4353 0.6808
C -7.0268 5.5214 1.7402
C -8.4793 5.6857 2.3518
C -6.1962 5.0441 2.9221
C -7.8811 3.6460 0.4308
C -7.8278 2.5024 -0.2796
C -6.6244 2.0441 -0.7020
C -5.3839 2.7332 -0.5153
C -4.1398 1.9418 -0.9617
C -4.4391 0.4856 -1.4514
C -3.3757 2.6091 -2.0887
C -4.3265 6.3203 0.0788
C -3.1350 6.9462 -0.0546
N -2.0709 6.1012 0.0144
C -0.5696 6.4238 0.0120
C 0.5289 5.7016 0.7193
C 0.4448 4.4639 1.6548
C 1.3568 3.3480 1.0849
C 0.9373 4.7303 3.1200
C 1.8751 6.1892 0.5880
C 2.2220 7.2549 -0.2098
C 1.2471 7.9511 -0.8419
C -0.0995 7.5998 -0.6984
C -1.0118 8.6075 -1.2641
C -1.7753 7.8440 -2.4206
C -1.4549 9.4176 0.0623
H 0.8893 -0.9480 -2.1390
H 0.3389 -1.3201 2.0674
H -6.7720 6.5190 1.3657
H -8.8211 4.7871 2.9258
H -9.2806 5.9471 1.6267
H -8.4663 6.5099 3.1003
H -6.5014 3.9908 3.1658
H -6.3682 5.6569 3.8246
H -5.1293 5.0549 2.6464
H -8.8687 3.8584 0.8137
H -8.7284 1.9158 -0.4456
H -6.7425 1.0905 -1.1766
H -3.5077 1.8373 -0.0542
H -5.1022 0.5072 -2.3488
H -4.9332 -0.1194 -0.6547
H -3.5350 -0.0604 -1.7778
H -3.9745 2.5571 -3.0165
H -2.4213 2.0840 -2.2137
H -3.1159 3.6451 -1.9147
H -5.2429 6.8772 0.0349
H -3.2141 7.9650 -0.2289
H -0.6054 4.1132 1.7224
H 2.4145 3.6720 0.9732
H 1.0190 3.0595 0.0755
H 1.4110 2.4697 1.7595
H 2.0424 4.8682 3.1747
H 0.7453 3.8695 3.8086
H 0.4284 5.6041 3.5717
H 2.7168 5.7493 1.1045
H 3.2516 7.5832 -0.3161
H 1.5513 8.8191 -1.4216
H -0.4924 9.4209 -1.8183
H -2.0234 6.7793 -2.2287
H -1.0646 7.6757 -3.2652
H -2.6942 8.3154 -2.8051
H -2.0380 8.9776 0.8946
H -1.9356 10.3986 -0.1179
H -0.5688 9.5658 0.7251
