59
 
P 1.0208 0.0497 0.0842
C 0.3333 -1.4157 1.0041
C 0.7185 -2.7520 0.3420
C 0.6200 -3.7614 1.4633
C 1.3005 -3.0594 2.6159
C 1.0749 -1.5580 2.3585
C 0.5536 1.6037 0.9744
C 1.0483 1.7486 2.3986
C 0.8218 3.2349 2.6538
C 1.3237 3.9014 1.3819
C 1.1148 2.8566 0.2771
C 0.5015 -0.1700 -1.7008
C 0.8948 1.0099 -2.5988
C 0.7345 0.4379 -4.0015
C 1.3127 -0.9618 -3.8853
C 1.1761 -1.3418 -2.4067
Au 3.4808 0.0497 0.0842
N 5.5808 0.0497 0.0842
C 6.2186 0.5872 -0.9837
C 7.6007 0.5017 -1.0867
C 8.3381 -0.1449 -0.0777
O 9.6867 -0.2877 -0.1603
C 10.4431 0.1002 -1.2508
C 7.6537 -0.6685 1.0301
C 6.2596 -0.5637 1.0894
H -0.7678 -1.4114 1.1553
H 1.7801 -2.7215 0.0002
H 0.0396 -3.0605 -0.4736
H 1.0657 -4.7549 1.2230
H -0.4529 -3.8943 1.7099
H 2.3970 -3.2576 2.5427
H 0.9455 -3.4320 3.5996
H 2.1037 -1.1351 2.2622
H 0.5763 -1.0415 3.1973
H -0.5586 1.7089 0.9923
H 2.1320 1.5143 2.4334
H 0.4796 1.1303 3.1206
H 1.3016 3.6268 3.5766
H -0.2747 3.4159 2.7212
H 2.4204 4.0698 1.4731
H 0.8355 4.8839 1.1966
H 2.1220 2.6291 -0.1382
H 0.4583 3.2261 -0.5406
H -0.6098 -0.2662 -1.7848
H 1.9629 1.2562 -2.4354
H 0.2672 1.9194 -2.4640
H 1.2096 1.0388 -4.8097
H -0.3519 0.3440 -4.2239
H 2.4013 -0.9362 -4.1072
H 0.8259 -1.6673 -4.5950
H 2.2069 -1.4003 -1.9937
H 0.6461 -2.3000 -2.2957
H 5.6482 1.0594 -1.7715
H 8.0777 0.9217 -1.9598
H 11.5127 -0.1213 -1.0692
H 10.3315 1.1922 -1.4209
H 10.1144 -0.4531 -2.1594
H 8.1872 -1.1743 1.8263
H 5.7133 -0.9924 1.9199
