65
 
P 1.0563 0.0785 0.0258
C 0.3283 0.1081 1.7199
C 0.8180 -1.1134 2.5189
C 0.5813 -0.7097 3.9677
C 0.9636 0.7449 3.9708
C 0.9341 1.2563 2.5430
C 0.4901 1.6509 -0.7539
C 1.0526 2.9264 -0.1681
C 0.7150 3.9431 -1.2359
C 1.0729 3.2292 -2.5266
C 0.8354 1.7418 -2.2482
C 0.4824 -1.5346 -0.6472
C -1.0451 -1.6048 -0.7099
C -1.2712 -2.7543 -1.6794
C -0.2735 -2.4675 -2.7922
C 0.9071 -1.7558 -2.1101
Au 3.5163 0.0785 0.0258
N 5.6163 0.0785 0.0258
C 6.3561 0.6075 0.9206
C 5.8503 1.2239 2.1626
C 4.7059 0.7030 2.7886
C 4.3966 1.2000 4.0766
C 5.0207 2.3040 4.6163
C 6.0941 2.8646 3.9583
C 6.5552 2.2859 2.7705
N 7.7255 0.4745 0.6180
C 7.8220 -0.4490 -0.4812
C 6.4042 -0.4355 -1.0631
H -0.7761 0.1683 1.7803
H 1.9183 -1.2407 2.3590
H 0.3093 -2.0651 2.2722
H 1.1763 -1.3208 4.6961
H -0.4888 -0.7609 4.2183
H 1.9790 0.6239 4.0911
H 0.7102 1.4208 4.8144
H 1.9958 1.4430 2.2067
H 0.3954 2.2108 2.5176
H -0.6239 1.7116 -0.6927
H 2.1509 2.8237 -0.0533
H 0.5729 3.2347 0.7699
H 1.2439 4.9096 -1.0955
H -0.3835 4.1180 -1.2165
H 2.1679 3.3526 -2.6774
H 0.5441 3.6318 -3.4168
H 1.7922 1.2266 -2.4821
H 0.0175 1.3007 -2.8651
H 0.8396 -2.4033 -0.0530
H -1.4622 -0.6740 -1.1566
H -1.5155 -1.7734 0.2837
H -2.3198 -2.8468 -2.0437
H -0.9759 -3.6986 -1.1782
H -0.7536 -1.7308 -3.4800
H 0.0038 -3.3585 -3.3941
H 1.0251 -0.8141 -2.6688
H 1.8788 -2.2870 -2.1673
H 4.1351 -0.1109 2.3037
H 3.7041 0.7792 4.7479
H 4.6688 2.7007 5.5636
H 6.5841 3.7153 4.4073
H 7.4419 2.6942 2.3132
H 8.4966 0.6970 1.2645
H 8.0231 -1.4521 -0.0364
H 8.6059 -0.2057 -1.2265
H 6.0932 -1.4478 -1.3963
H 6.3205 0.2942 -1.8982
