87
 
P 0.9637 0.0762 0.0536
C 0.1432 0.1895 1.7019
C 0.5906 -0.9811 2.5901
C 0.2879 -0.4741 3.9919
C 0.8266 0.9449 3.9661
C 0.6759 1.4019 2.5068
C 0.5209 1.6090 -0.8938
C 1.0427 2.9179 -0.3475
C 0.8201 3.8537 -1.5282
C 1.2843 3.0498 -2.7299
C 1.0744 1.5935 -2.3274
C 0.3637 -1.5235 -0.6451
C -1.1643 -1.5029 -0.7787
C -1.4346 -2.5815 -1.8137
C -0.3747 -2.3111 -2.8676
C 0.8426 -1.7777 -2.0934
Au 3.4237 0.0762 0.0536
P 5.8837 0.0762 0.0536
C 6.5564 -1.4205 -0.7551
C 7.3325 -1.4029 -1.9290
C 7.5300 -2.5857 -2.6656
C 6.9698 -3.8012 -2.2418
C 7.0577 -5.0357 -3.1037
C 6.2682 -3.8403 -1.0314
C 6.0565 -2.6609 -0.3017
C 6.2185 1.5300 -0.9727
C 5.1393 2.2776 -1.4635
C 5.4002 3.4290 -2.2522
C 6.7256 3.8288 -2.5421
C 7.0284 4.9986 -3.4496
C 7.7900 3.1017 -2.0003
C 7.5417 1.9634 -1.2228
C 6.3710 0.0877 1.8112
C 5.3970 0.1110 2.8200
C 5.7619 0.3254 4.1586
C 7.1062 0.5119 4.5150
C 7.4839 0.8473 5.9353
C 8.0922 0.4270 3.5215
C 7.7289 0.2223 2.1781
H -0.9666 0.2191 1.6754
H 1.6939 -1.1305 2.5074
H 0.0793 -1.9381 2.3547
H 0.7262 -1.0870 4.8125
H -0.8134 -0.4326 4.1173
H 1.9184 0.9012 4.1934
H 0.3540 1.6141 4.7179
H 1.7061 1.6812 2.1788
H 0.0164 2.2845 2.4061
H -0.5894 1.6950 -0.9781
H 2.1245 2.8133 -0.1294
H 0.4864 3.2745 0.5379
H 1.3229 4.8384 -1.4361
H -0.2762 4.0161 -1.6359
H 2.3764 3.1930 -2.8692
H 0.7692 3.3452 -3.6706
H 2.0843 1.1223 -2.3208
H 0.3969 1.0702 -3.0383
H 0.6506 -2.4107 -0.0392
H -1.4982 -0.5309 -1.2040
H -1.6967 -1.6736 0.1826
H -2.4711 -2.5572 -2.2240
H -1.2403 -3.5723 -1.3584
H -0.7598 -1.4785 -3.5059
H -0.1604 -3.1723 -3.5345
H 1.1416 -0.8779 -2.6331
H 1.7452 -2.4187 -2.1234
H 7.7258 -0.4853 -2.3330
H 8.0775 -2.5476 -3.5988
H 7.5227 -4.8124 -4.0885
H 6.0288 -5.4089 -3.3145
H 7.6333 -5.8396 -2.6038
H 5.8258 -4.7717 -0.6907
H 5.4279 -2.7137 0.5791
H 4.1130 1.9324 -1.2109
H 4.5831 4.0144 -2.6507
H 6.1035 5.4450 -3.8705
H 7.6397 4.6311 -4.3044
H 7.6073 5.7951 -2.9319
H 8.8139 3.4129 -2.1974
H 8.3941 1.4249 -0.8279
H 4.3494 0.0168 2.5723
H 4.9907 0.3833 4.9160
H 6.5852 0.9606 6.5804
H 8.0213 1.8221 5.9510
H 8.1408 0.0682 6.3721
H 9.1364 0.5673 3.7856
H 8.5113 0.2226 1.4295
