61
 
P 0.9205 0.0537 0.0283
C -0.0787 1.6201 0.4577
C 0.0377 2.0879 1.9490
C 1.4558 2.5745 2.3353
C 1.9243 3.7135 1.4179
C 1.8157 3.2902 -0.0475
C 0.3581 2.8724 -0.3489
C 0.6574 -0.2037 -1.9137
C 1.2747 0.7867 -2.9503
C 2.8027 0.7471 -2.9550
C 3.3170 -0.6680 -3.2591
C 2.6618 -1.7225 -2.3505
C 1.1307 -1.5782 -2.4991
C 0.2639 -1.0904 1.4144
C -1.2886 -1.2414 1.3705
C -1.7440 -1.9738 0.0982
C -1.0805 -3.3591 -0.0167
C 0.4456 -3.3711 0.2854
C 0.8165 -2.5422 1.4996
Au 3.3805 0.0537 0.0283
O 5.4305 0.0537 0.0283
C 6.1979 1.0008 0.5032
N 7.4999 0.6800 0.3560
C 7.4823 -0.5321 -0.2398
C 6.1731 -0.9131 -0.4374
H -1.1441 1.4239 0.2309
H -0.3061 1.3192 2.6610
H -0.6525 2.9516 2.0943
H 2.1711 1.7294 2.2723
H 1.4528 2.9541 3.3824
H 2.9709 4.0036 1.6640
H 1.2850 4.6117 1.5754
H 2.5202 2.4580 -0.2482
H 2.1122 4.1485 -0.6892
H 0.1784 2.7356 -1.3974
H -0.3016 3.7344 -0.1074
H -0.4314 -0.1539 -2.0996
H 0.9267 1.8078 -2.9175
H 0.9219 0.4892 -3.9693
H 3.1706 1.0921 -1.9762
H 3.1764 1.4400 -3.7405
H 4.4247 -0.6972 -3.1856
H 3.0488 -0.9162 -4.3130
H 2.9763 -1.6150 -1.2838
H 2.9974 -2.7246 -2.6982
H 0.5176 -2.4236 -2.1865
H 0.8962 -1.6639 -3.5859
H 0.5502 -0.6327 2.3789
H -1.8056 -0.2677 1.4519
H -1.6285 -1.8366 2.2483
H -2.8518 -2.0963 0.0949
H -1.5104 -1.3574 -0.7740
H -1.2931 -3.7871 -1.0252
H -1.5683 -4.0160 0.7303
H 1.0983 -2.9377 -0.4400
H 0.7886 -4.4235 0.3571
H 1.9187 -2.5409 1.6309
H 0.3729 -3.0514 2.3851
H 5.8395 1.9164 0.9538
H 8.3637 -1.0986 -0.5089
H 5.8068 -1.8267 -0.8864
