81
 
P 1.0665 -0.0307 0.0681
C 0.1423 -1.7222 -0.1657
C 0.1462 -2.7520 -1.3936
C 1.4075 -3.6616 -1.5985
C 1.8446 -4.3563 -0.3020
C 2.0166 -3.2848 0.7383
C 0.6412 -2.6436 0.9551
C 0.4630 0.5402 1.8981
C 0.8549 -0.2598 3.2108
C 2.3773 -0.2759 3.3277
C 2.9270 1.1723 3.4363
C 2.3686 2.1175 2.3571
C 0.8572 2.0015 2.3159
C 0.6362 0.9677 -1.5737
C 1.1656 2.4443 -1.7605
C 2.6969 2.4568 -1.9726
C 3.1635 1.5848 -3.1431
C 2.5482 0.1860 -3.0679
C 1.0305 0.2958 -2.9164
Au 3.5265 -0.0307 0.0681
P 5.9865 -0.0307 0.0681
N 6.9972 -0.6179 -1.3278
C 6.6732 -2.0151 -1.7525
C 6.6957 0.1790 -2.5512
N 6.4623 1.7067 -0.0199
C 6.0276 2.4856 1.1538
C 7.9298 1.8801 -0.1380
N 6.4575 -1.2459 1.3176
C 7.9136 -1.3029 1.5478
C 5.8381 -0.9806 2.6303
H -0.9177 -1.4263 -0.0354
H -0.1920 -2.3635 -2.3584
H -0.6608 -3.4821 -1.1532
H 2.2562 -3.0598 -1.9765
H 1.1892 -4.4690 -2.3366
H 2.7937 -4.9227 -0.4335
H 1.0798 -5.0826 0.0674
H 2.7823 -2.5352 0.4212
H 2.3665 -3.7439 1.6894
H 0.8362 -2.0711 1.7578
H -0.1210 -3.4044 1.2300
H -0.6469 0.5240 1.8800
H 0.3961 -1.2503 3.3843
H 0.4094 0.1976 4.1202
H 2.7453 -0.7963 2.4126
H 2.6862 -0.8484 4.2353
H 4.0347 1.1980 3.4071
H 2.6193 1.5853 4.4232
H 2.7296 1.8867 1.3400
H 2.6769 3.1593 2.6000
H 0.4275 2.7970 1.6836
H 0.4799 2.2389 3.3520
H -0.4725 1.0544 -1.5722
H 0.8785 3.1302 -0.9371
H 0.6814 2.9057 -2.6720
H 3.1500 2.0012 -1.0619
H 3.0610 3.5004 -2.1757
H 4.2639 1.5256 -3.0944
H 2.9199 2.0376 -4.1326
H 2.9488 -0.3775 -2.2031
H 2.8031 -0.3635 -4.0023
H 0.5679 -0.6671 -3.0277
H 0.6337 0.8898 -3.7790
H 6.9434 -2.7805 -1.0052
H 7.2586 -2.2815 -2.6713
H 5.6045 -2.1511 -2.0655
H 6.7102 1.2717 -2.4046
H 5.7017 -0.0647 -2.9843
H 7.4484 -0.0397 -3.3409
H 4.9371 2.4376 1.2973
H 6.2702 3.5638 0.9949
H 6.5571 2.1771 2.0838
H 8.3534 1.4363 -1.0546
H 8.4714 1.4355 0.7180
H 8.1829 2.9604 -0.2136
H 8.4709 -1.4650 0.6089
H 8.1466 -2.1668 2.2137
H 8.2986 -0.3972 2.0716
H 4.7589 -1.0581 2.5532
H 6.1327 0.0019 3.0677
H 6.1358 -1.7596 3.3727
