24
 
P 1.1266 -0.0903 0.4086
F -0.2479 -0.2725 1.3286
F 0.8048 1.5226 0.0391
F 0.7037 -1.2577 -0.7248
Cu 3.5047 -0.0243 0.1542
N 5.5268 -0.0322 0.0866
C 6.2329 1.1503 0.0346
N 5.5620 2.4314 0.0338
C 6.1382 3.5931 -0.6316
C 4.2949 2.6707 0.7070
C 7.6423 1.0840 -0.0632
C 8.2903 -0.1399 -0.1269
C 7.5561 -1.3134 -0.0565
C 6.1653 -1.2426 0.0700
H 7.1736 3.4503 -0.9713
H 6.1600 4.4600 0.0562
H 5.5302 3.8459 -1.5282
H 3.9877 1.8644 1.3645
H 3.5037 2.9665 -0.0156
H 4.4363 3.5057 1.4278
H 8.2727 1.9562 -0.0837
H 9.3682 -0.1679 -0.2290
H 8.0709 -2.2648 -0.1052
H 5.5980 -2.1623 0.1365
