66
 
P 1.1226 -0.5212 0.0865
F -0.0729 -1.1682 1.0484
F 0.4973 1.0455 0.1041
F 0.8188 -1.4902 -1.2461
Cu 3.4610 -0.0595 -0.1149
P 5.8372 0.1542 0.0125
C 6.5243 0.4031 1.8001
C 6.6751 -0.7062 2.7273
C 6.2757 -2.0788 2.5024
C 7.4489 -0.6267 3.8706
C 7.9757 0.5494 4.2743
C 8.7601 0.5219 5.5265
C 7.7224 1.7022 3.5381
C 7.0186 1.6494 2.3127
C 6.7972 2.9542 1.6466
C 6.4398 -1.5465 -0.3867
C 5.6253 -2.4680 -1.1410
C 4.3583 -2.0759 -1.9275
C 6.0484 -3.8029 -1.2513
C 7.2523 -4.2452 -0.6939
C 7.6547 -5.6848 -0.8268
C 8.0992 -3.3366 -0.0584
C 7.7400 -1.9856 0.0810
C 8.7839 -1.0865 0.7709
C 6.1130 1.3639 -1.3545
C 5.5381 2.6711 -1.2930
C 4.4318 3.0973 -0.3554
C 5.9952 3.6644 -2.1435
C 6.9108 3.4034 -3.1400
C 7.2966 4.5103 -4.0507
C 7.3570 2.1047 -3.3517
C 6.9533 1.0529 -2.5074
C 7.3860 -0.3438 -2.9930
H 5.5672 -1.9995 1.7097
H 5.7021 -2.4806 3.3389
H 7.2301 -2.6705 2.3859
H 7.6915 -1.5342 4.4284
H 8.8557 -0.5170 5.9306
H 8.1714 1.1094 6.2474
H 9.7778 0.9092 5.3362
H 8.1057 2.6413 3.9071
H 7.1858 3.8131 2.2278
H 5.7095 3.0776 1.6691
H 7.2655 3.0007 0.6518
H 4.2374 -0.9893 -2.0052
H 3.4294 -2.5887 -1.6256
H 4.4619 -2.4028 -3.0001
H 5.4405 -4.5121 -1.7968
H 6.8613 -6.2726 -1.3355
H 7.8308 -6.1385 0.1726
H 8.5798 -5.7474 -1.4358
H 9.0416 -3.6888 0.3598
H 9.7127 -1.5985 1.0557
H 8.6675 -0.7975 1.7783
H 8.8477 -0.0776 0.3306
H 4.1462 2.2481 0.2866
H 3.4491 3.4192 -0.7707
H 4.7701 4.0424 0.1133
H 5.6250 4.6723 -2.0231
H 6.7917 5.4558 -3.7531
H 6.9129 4.2207 -5.0460
H 8.3940 4.6720 -4.0625
H 8.0230 1.9191 -4.1915
H 7.9022 -0.2858 -3.9863
H 6.4907 -0.9859 -2.9972
H 8.0781 -1.0163 -2.5005
