44
 
P 0.9077 0.0066 0.0378
C 0.0830 0.1750 -1.5614
C -1.3004 0.1579 -1.7696
C -1.8131 0.2776 -3.0683
C -0.9530 0.4056 -4.1648
F -1.4566 0.4857 -5.4213
C 0.4260 0.4458 -3.9650
C 0.9401 0.3398 -2.6710
C 0.4782 -1.7261 0.2470
C 0.8060 -2.7395 -0.6591
C 0.4279 -4.0636 -0.3829
C -0.2646 -4.3757 0.7956
F -0.6148 -5.6574 1.0666
C -0.5941 -3.3652 1.6975
C -0.2294 -2.0487 1.4215
C 0.4131 1.3340 1.1478
C -0.9535 1.5461 1.4078
C -1.3700 2.5394 2.2905
C -0.4235 3.3246 2.9445
F -0.8373 4.2891 3.8051
C 0.9455 3.1039 2.7194
C 1.3717 2.1057 1.8168
Cu 3.3677 0.0066 0.0378
O 5.4177 0.0066 0.0378
C 6.1722 -0.8349 -0.6232
C 7.4932 -0.5132 -0.3791
C 7.4770 0.5766 0.4720
C 6.1483 0.8642 0.7044
H -1.9870 0.0462 -0.9532
H -2.8817 0.2598 -3.2253
H 1.0967 0.5516 -4.8112
H 2.0177 0.3732 -2.5400
H 1.3421 -2.5073 -1.5678
H 0.6746 -4.8521 -1.0792
H -1.1282 -3.5981 2.6125
H -0.4941 -1.2799 2.1392
H -1.7123 0.9407 0.9472
H -2.4294 2.6900 2.4704
H 1.6664 3.7079 3.2533
H 2.4357 1.9060 1.6386
H 5.8050 -1.6365 -1.2497
H 8.3677 -1.0118 -0.7747
H 8.3332 1.1010 0.8749
H 5.7551 1.6583 1.3252
