77
 
P 0.9698 0.0249 -0.0920
C 0.5254 -1.7216 -0.7996
C -0.6219 -2.0218 -1.6151
C -1.6552 -1.0071 -1.9460
C -0.8206 -3.3187 -2.1939
C 0.1054 -4.3514 -2.0101
C -0.0088 -5.7494 -2.5809
C 1.2239 -4.0857 -1.2702
C 1.4575 -2.8256 -0.6924
C 2.7356 -2.7645 0.0468
C 0.2490 -0.0800 1.6879
C 1.0773 -0.3485 2.8336
C 2.5009 -0.8029 2.7822
C 0.5877 -0.1951 4.1548
C -0.6988 0.2347 4.4210
C -1.1951 0.4465 5.8251
C -1.5419 0.4694 3.3678
C -1.1340 0.3056 2.0273
C -2.2792 0.6483 1.1109
C 0.7444 1.5654 -1.2974
C -0.1344 2.7504 -1.1463
C -1.0997 3.1032 -0.0796
C -0.1563 3.8034 -2.0757
C 0.7081 3.8719 -3.1170
C 0.6725 5.1319 -3.9583
C 1.5733 2.7946 -3.3180
C 1.5570 1.6410 -2.4708
C 2.4196 0.4925 -2.8656
Cu 3.4298 0.0249 -0.0920
N 5.5298 0.0249 -0.0920
C 6.1477 1.0627 -0.7055
C 7.5474 1.0824 -0.8329
O 8.2065 2.0935 -1.4552
C 7.6067 3.2164 -1.9901
C 8.2773 0.0060 -0.3144
C 7.6166 -1.0480 0.3247
C 6.2239 -1.0177 0.4327
H -1.3870 -0.0158 -1.5565
H -2.6273 -1.3475 -1.5277
H -1.7429 -0.9083 -3.0450
H -1.6938 -3.5221 -2.8056
H -0.8886 -5.8909 -3.2369
H -0.0556 -6.4855 -1.7451
H 0.9108 -5.9933 -3.1648
H 1.9358 -4.9017 -1.1540
H 3.3427 -3.6973 -0.0450
H 2.4180 -2.7434 1.0842
H 3.3594 -1.9288 -0.2905
H 2.9226 -0.9099 1.7541
H 2.5346 -1.7732 3.3443
H 3.1337 -0.0821 3.3336
H 1.2307 -0.3887 5.0045
H -0.4126 0.2069 6.5732
H -2.0747 -0.2063 6.0077
H -1.4998 1.5081 5.9678
H -2.5476 0.8131 3.6129
H -3.2584 0.4660 1.5997
H -2.4111 -0.0025 0.2571
H -2.5022 1.7098 1.1384
H -0.6578 2.8990 0.9046
H -2.1257 2.8755 -0.4678
H -1.2598 4.2073 0.0415
H -0.8475 4.6437 -1.9677
H -0.1338 5.8391 -3.6346
H 0.4798 4.9031 -5.0214
H 1.6201 5.6929 -3.8265
H 2.2474 2.8480 -4.1598
H 3.1539 0.7771 -3.6409
H 1.7520 -0.3076 -3.2494
H 2.9861 0.0957 -2.0314
H 5.5314 1.8548 -1.1075
H 8.3783 3.8597 -2.4580
H 7.0964 3.7939 -1.1889
H 6.8711 2.9238 -2.7703
H 9.3554 -0.0180 -0.4132
H 8.1773 -1.8870 0.7164
H 5.6933 -1.8364 0.9004
