93
 
P 0.9233 0.0325 -0.0553
C 0.3698 -1.1764 1.3546
C 1.1455 -1.3219 2.5914
C 2.3282 -0.4793 2.9894
C 0.8285 -2.3123 3.5614
C -0.2352 -3.1738 3.3841
C -1.0339 -3.0294 2.2590
C -0.7538 -2.0488 1.2714
C 0.3180 1.8239 0.3420
C -0.9454 2.3900 -0.1021
C -1.9566 1.7060 -0.9578
C -1.3125 3.7250 0.2052
C -0.4516 4.5693 0.8735
C 0.7660 4.0771 1.3096
C 1.1242 2.7290 1.0942
C 0.6296 -0.5797 -1.8159
C 0.9460 0.1958 -2.9915
C 1.4472 1.5994 -2.9759
C 0.7354 -0.3224 -4.2876
C 0.1617 -1.5671 -4.4702
C -0.2110 -2.3125 -3.3595
C 0.0264 -1.8341 -2.0579
Cu 3.3833 0.0325 -0.0553
C 5.5333 0.0325 -0.0553
N 6.2409 -1.0592 -0.0734
C 5.8356 -2.4642 -0.1996
C 4.6965 -2.9190 -0.9650
C 3.6963 -2.0630 -1.6834
C 4.4887 -4.3038 -1.1782
C 5.3522 -5.2621 -0.6571
C 5.2169 -6.7266 -0.9632
C 6.4018 -4.8558 0.1350
C 6.6648 -3.5025 0.3612
C 7.8829 -3.2442 1.1882
C 7.6385 -0.6894 -0.1354
C 7.6554 0.7582 -0.5218
N 6.3432 1.2180 -0.1514
C 6.0060 2.5350 0.3629
C 4.7393 3.1195 0.0738
C 3.7595 2.4699 -0.8707
C 4.4010 4.3896 0.6065
C 5.2957 5.1019 1.4127
C 4.9758 6.4677 1.9621
C 6.5312 4.5488 1.6991
C 6.9117 3.2978 1.1955
C 8.2877 2.8578 1.6253
H 2.5439 0.3035 2.2542
H 3.2388 -1.1023 3.1427
H 2.1096 0.0007 3.9761
H 1.4177 -2.4356 4.4731
H -0.4442 -3.9456 4.1289
H -1.8729 -3.7081 2.1586
H -1.4329 -2.0115 0.4439
H -1.5489 0.8089 -1.4339
H -2.2434 2.4021 -1.7836
H -2.8756 1.5061 -0.3648
H -2.2651 4.1419 -0.1206
H -0.7338 5.6076 1.0417
H 1.4353 4.7602 1.8178
H 2.0755 2.4284 1.4968
H 1.3059 2.0620 -1.9968
H 0.8354 2.2153 -3.6761
H 2.5007 1.6227 -3.3190
H 0.9879 0.2584 -5.1728
H -0.0099 -1.9390 -5.4768
H -0.6838 -3.2730 -3.5164
H -0.2705 -2.4678 -1.2534
H 3.9281 -0.9978 -1.7170
H 2.7076 -2.2505 -1.2118
H 3.6326 -2.3622 -2.7522
H 3.6701 -4.6406 -1.8067
H 4.3429 -6.9414 -1.6103
H 5.1376 -7.3091 -0.0225
H 6.1329 -7.0607 -1.5039
H 7.0584 -5.6166 0.5442
H 8.2675 -4.1504 1.6971
H 7.6413 -2.5198 1.9912
H 8.6902 -2.9342 0.4976
H 8.2217 -1.2504 -0.8974
H 8.0671 -0.7385 0.8851
H 7.7448 0.8915 -1.6220
H 8.5483 1.1610 -0.0710
H 4.1083 1.5644 -1.3515
H 3.5008 3.2157 -1.6564
H 2.8405 2.2052 -0.4016
H 3.4487 4.8498 0.3721
H 3.9665 6.8100 1.6574
H 5.7212 7.2050 1.5869
H 5.0279 6.4556 3.0728
H 7.2167 5.1156 2.3233
H 8.7752 3.5524 2.3391
H 8.9777 2.9058 0.7639
H 8.2311 1.8670 2.1269
