88
 
P 1.0121 0.0687 -0.0717
C 0.3521 1.4555 -1.0342
C -0.9851 1.6857 -1.3738
C -1.3141 2.7802 -2.1919
C -0.3218 3.6706 -2.6609
O -0.6023 4.6862 -3.5214
C -1.8210 4.8598 -4.1483
C 0.9985 3.4847 -2.2474
C 1.3283 2.3876 -1.4488
C 0.6956 -1.3100 -1.2154
C 1.2200 -1.3448 -2.5038
C 1.0064 -2.4573 -3.3240
C 0.2694 -3.5723 -2.8737
O 0.0547 -4.6603 -3.6643
C 0.3986 -4.7287 -5.0024
C -0.2514 -3.5525 -1.5743
C -0.0447 -2.4306 -0.7520
C 0.4581 0.1764 1.6451
C -0.9168 0.1334 1.9141
C -1.3944 0.2467 3.2166
C -0.5068 0.3977 4.2954
O -0.9601 0.5713 5.5692
C -2.2944 0.7313 5.9113
C 0.8788 0.3837 4.0373
C 1.3636 0.2726 2.7148
Cu 3.4721 0.0687 -0.0717
C 5.6221 0.0687 -0.0717
N 6.4126 1.1667 -0.2100
C 5.8053 2.4909 -0.2499
C 6.2084 3.6674 -1.1971
C 4.9820 4.6390 -1.1459
C 4.6682 5.0882 0.3025
C 4.5196 3.8994 1.2614
C 5.7370 3.0083 1.1781
C 7.6871 0.7299 -0.1210
C 7.6495 -0.6561 -0.0662
N 6.3578 -1.0602 -0.0962
C 5.9186 -2.4695 -0.1283
C 5.7258 -2.7510 1.3848
C 4.2584 -2.7580 1.8193
C 3.5282 -3.8787 1.0949
C 3.5315 -3.5931 -0.4050
C 4.9713 -3.4779 -0.9400
H -1.7710 1.0268 -1.0431
H -2.3459 2.9197 -2.4742
H -1.7760 5.7208 -4.8459
H -2.6089 5.0517 -3.3924
H -2.0763 3.9489 -4.7362
H 1.7785 4.1704 -2.5677
H 2.3657 2.2577 -1.1613
H 1.8088 -0.5212 -2.8719
H 1.4341 -2.4437 -4.3125
H 0.1384 -5.7216 -5.4217
H 1.4916 -4.5754 -5.1298
H -0.1573 -3.9474 -5.5655
H -0.8133 -4.4077 -1.2021
H -0.4540 -2.4577 0.2528
H -1.6364 0.0184 1.1166
H -2.4646 0.2270 3.3716
H -2.3981 0.9005 7.0025
H -2.8733 -0.1768 5.6392
H -2.7218 1.6136 5.3826
H 1.5776 0.4765 4.8613
H 2.4351 0.2690 2.5151
H 4.8031 2.2296 -0.6501
H 6.3675 3.3620 -2.2547
H 7.1300 4.2076 -0.8632
H 4.0918 4.0953 -1.5370
H 5.1086 5.5310 -1.7934
H 3.7219 5.6691 0.3320
H 5.4978 5.7284 0.6638
H 3.6353 3.2774 0.9848
H 4.3912 4.2410 2.3057
H 5.6009 2.1664 1.8874
H 6.6812 3.5382 1.4529
H 8.5764 1.3470 -0.1024
H 8.4960 -1.3306 -0.0100
H 5.7261 -2.0010 -1.1127
H 6.2495 -2.0066 2.0272
H 6.1940 -3.7326 1.6010
H 3.7737 -1.7729 1.6110
H 4.2144 -2.9451 2.9124
H 2.4854 -3.9575 1.4674
H 4.0421 -4.8459 1.3060
H 2.9695 -2.6621 -0.6057
H 3.0138 -4.4342 -0.9219
H 4.8931 -3.4321 -2.0761
H 5.4309 -4.4732 -0.7828
