84
 
P 1.0849 0.0357 0.0390
C 0.4071 1.4272 -0.9305
C -0.9395 1.6585 -1.2535
C -1.2783 2.7120 -2.1245
C -0.2935 3.5700 -2.6437
C -0.6337 4.5979 -3.6882
C 1.0281 3.4262 -2.2165
C 1.3730 2.3603 -1.3799
C 0.7683 -1.3886 -1.0705
C 1.8494 -2.1630 -1.5231
C 1.6411 -3.3103 -2.3031
C 0.3438 -3.7167 -2.6420
C 0.1175 -4.8904 -3.5549
C -0.7481 -2.9935 -2.1473
C -0.5432 -1.8382 -1.3699
C 0.5124 0.1661 1.7646
C -0.8692 0.1433 2.0339
C -1.3533 0.3239 3.3330
C -0.4670 0.5100 4.3990
C -0.9956 0.8183 5.7749
C 0.9169 0.4433 4.1579
C 1.4085 0.2756 2.8454
Cu 3.5449 0.0357 0.0390
P 6.0049 0.0357 0.0390
C 6.6991 1.7960 -0.0473
C 7.4427 2.4550 0.9812
C 7.7547 3.8386 0.8980
C 7.3393 4.6023 -0.1910
C 6.6176 3.9905 -1.2104
C 6.3002 2.6153 -1.1400
C 6.4577 -0.6607 1.6634
C 5.4933 -1.1897 2.5371
C 5.8948 -1.8402 3.7206
C 7.2533 -1.9851 4.0277
C 8.2170 -1.5117 3.1404
C 7.8239 -0.8597 1.9682
C 6.3176 -0.9775 -1.5450
C 6.5923 -0.9113 -3.1038
C 8.0824 -0.8164 -3.5394
C 9.0052 -1.7847 -2.7726
C 8.7308 -1.6804 -1.2777
C 7.2548 -2.1006 -1.0626
H -1.7261 1.0234 -0.8839
H -2.3094 2.8469 -2.4207
H -1.6834 4.4837 -4.0332
H 0.0147 4.4223 -4.5779
H -0.4721 5.6318 -3.3245
H 1.7989 4.1055 -2.5728
H 2.4175 2.2533 -1.1052
H 2.8615 -1.8915 -1.2633
H 2.4942 -3.8833 -2.6456
H 1.0779 -5.3066 -3.9294
H -0.4514 -4.5228 -4.4355
H -0.4619 -5.7016 -3.0649
H -1.7562 -3.3279 -2.3773
H -1.4198 -1.3230 -1.0024
H -1.5882 0.0094 1.2396
H -2.4241 0.3406 3.5041
H -2.1035 0.9268 5.7731
H -0.5764 1.7952 6.1026
H -0.7137 0.0354 6.5065
H 1.6076 0.5563 4.9863
H 2.4809 0.2530 2.6713
H 7.7580 1.9514 1.8796
H 8.3006 4.3458 1.6894
H 7.5634 5.6703 -0.2377
H 6.2849 4.6003 -2.0462
H 5.7009 2.2073 -1.9391
H 4.4401 -1.1334 2.2866
H 5.1579 -2.2516 4.3980
H 7.5632 -2.4827 4.9407
H 9.2704 -1.6624 3.3537
H 8.5978 -0.5416 1.2873
H 5.2738 -1.3264 -1.5913
H 5.9557 -0.2114 -3.6766
H 6.2902 -1.9299 -3.4714
H 8.4277 0.2166 -3.3731
H 8.1816 -1.0622 -4.6269
H 10.0727 -1.5708 -3.0064
H 8.8221 -2.8452 -3.0669
H 8.9409 -0.6414 -0.9285
H 9.4212 -2.3678 -0.7456
H 7.0173 -2.3969 -0.0312
H 7.0626 -3.0425 -1.6148
