90
 
P 1.0584 0.0615 0.0530
C 0.4008 1.3460 -1.0762
C -0.9408 1.5233 -1.4385
C -1.2839 2.4705 -2.4333
C -2.6748 2.5115 -2.9825
C -0.3058 3.3181 -2.9823
C 1.0148 3.2117 -2.5599
C 1.3674 2.2226 -1.6340
C 0.7232 -1.4746 -0.9016
C 1.2278 -1.6827 -2.1841
C 0.9831 -2.8942 -2.8672
C 1.4877 -3.0948 -4.2551
C 0.2511 -3.9233 -2.2576
C -0.2481 -3.7458 -0.9730
C -0.0237 -2.5329 -0.2977
C 0.5391 0.2287 1.7922
C 1.5096 0.3044 2.8030
C 1.1225 0.2664 4.1655
C 2.1465 0.2606 5.2615
C -0.2378 0.1836 4.5084
C -1.2077 0.1351 3.5075
C -0.8259 0.1492 2.1566
Cu 3.5184 0.0615 0.0530
P 5.9784 0.0615 0.0530
C 6.6557 1.1803 -1.3198
C 6.1426 2.6281 -1.0640
C 8.1826 1.2731 -1.5000
C 6.0204 0.7512 -2.6470
C 6.5148 0.5387 1.7981
C 5.9537 -0.5067 2.7643
C 8.0578 0.5238 1.9623
C 6.0089 1.9202 2.2444
C 6.4212 -1.6015 -0.4808
C 5.4392 -2.5443 -0.7455
C 5.7783 -3.8983 -0.8754
C 7.1220 -4.3557 -0.7237
N 7.4740 -5.7705 -0.7363
C 6.4870 -6.8332 -0.8918
C 8.8358 -6.2682 -0.5267
C 8.1012 -3.3577 -0.5116
C 7.7570 -2.0158 -0.4009
H -1.7061 0.9002 -1.0063
H -3.3234 1.7729 -2.4699
H -2.6062 2.2036 -4.0494
H -3.1343 3.5193 -2.9246
H -0.5591 4.0461 -3.7501
H 1.7712 3.8687 -2.9835
H 2.4143 2.1397 -1.3644
H 1.8085 -0.9022 -2.6470
H 2.0946 -2.2265 -4.5817
H 0.6103 -3.1934 -4.9280
H 2.1067 -4.0150 -4.3138
H 0.0731 -4.8636 -2.7764
H -0.8072 -4.5569 -0.5094
H -0.4345 -2.4534 0.7022
H 2.5636 0.3397 2.5114
H 3.1725 0.3428 4.8496
H 2.0723 -0.6988 5.8198
H 1.9723 1.0987 5.9695
H -0.5467 0.1399 5.5510
H -2.2548 0.0552 3.7867
H -1.6036 0.0618 1.4089
H 6.6615 3.1225 -0.2347
H 5.0442 2.6518 -0.8795
H 6.3542 3.3013 -1.9221
H 8.6919 1.6893 -0.6211
H 8.4131 2.0082 -2.3055
H 8.6313 0.3080 -1.7888
H 4.9094 0.7722 -2.5672
H 6.3511 -0.2648 -2.9312
H 6.3167 1.4568 -3.4574
H 6.3373 -1.5177 2.5086
H 4.8460 -0.5094 2.7304
H 6.2827 -0.2756 3.8034
H 8.4976 -0.4550 1.7146
H 8.3580 0.7175 3.0119
H 8.5542 1.3129 1.3811
H 4.9115 2.0025 2.1133
H 6.5185 2.7448 1.7335
H 6.2659 2.0942 3.3117
H 4.4013 -2.2419 -0.7902
H 4.9429 -4.5485 -1.0429
H 5.4502 -6.5014 -1.0160
H 6.4974 -7.4822 0.0105
H 6.7374 -7.4472 -1.7814
H 9.6144 -5.5115 -0.3732
H 9.1568 -6.8688 -1.4029
H 8.8627 -6.9126 0.3791
H 9.1467 -3.5614 -0.3743
H 8.5575 -1.3314 -0.1797
