71
 
P 0.9726 -0.0681 0.0679
C 0.2008 1.5465 0.2444
C -1.1651 1.8194 0.1377
C -1.6189 3.1416 0.2960
C -0.7132 4.1873 0.5679
C -1.1731 5.6113 0.6921
C 0.6467 3.8972 0.7061
C 1.0963 2.5907 0.5399
C 0.5466 -0.4063 -1.6447
C 0.9472 0.4166 -2.6905
C 0.5259 0.1389 -3.9955
C -0.2950 -0.9695 -4.2687
C -0.8197 -1.2040 -5.6561
C -0.6483 -1.8360 -3.2258
C -0.2302 -1.5551 -1.9199
C 0.5991 -1.0352 1.5437
C -0.2176 -0.5321 2.5580
C -0.4590 -1.2819 3.7082
C 0.1106 -2.5530 3.8649
C -0.0798 -3.3119 5.1459
C 0.8824 -3.0931 2.8251
C 1.1238 -2.3392 1.6671
Cu 3.4326 -0.0681 0.0679
P 5.8926 -0.0681 0.0679
C 6.8458 -1.5199 0.5980
C 6.2574 0.2799 -1.6487
C 5.2015 0.4943 -2.5456
C 5.5114 0.7715 -3.8999
C 6.8503 0.8423 -4.3304
C 7.8887 0.6491 -3.4180
C 7.5937 0.3720 -2.0813
C 6.4048 1.1072 1.3409
C 5.4621 1.8797 2.0326
C 5.8876 2.9179 2.8765
C 7.2515 3.1856 3.0372
C 8.1961 2.4118 2.3625
C 7.7769 1.3819 1.5145
H -1.8658 1.0247 -0.0727
H -2.6744 3.3537 0.2009
H -2.2662 5.6995 0.5253
H -0.6561 6.2239 -0.0785
H -0.9272 6.0210 1.6950
H 1.3618 4.6822 0.9322
H 2.1582 2.3929 0.6477
H 1.5640 1.2786 -2.4893
H 0.8240 0.8040 -4.7914
H -0.4920 -0.3981 -6.3466
H -1.9313 -1.1851 -5.6252
H -0.4844 -2.1816 -6.0586
H -1.2665 -2.7092 -3.4203
H -0.5355 -2.2292 -1.1243
H -0.6655 0.4433 2.4738
H -1.0788 -0.8564 4.4846
H -0.6687 -2.7196 5.8794
H 0.9174 -3.5053 5.5977
H -0.5948 -4.2769 4.9673
H 1.3122 -4.0852 2.9239
H 1.7350 -2.7713 0.8810
H 6.5194 -2.3415 -0.0869
H 6.5196 -1.8273 1.6134
H 7.9384 -1.4171 0.5133
H 4.1575 0.4520 -2.1479
H 4.7280 0.9377 -4.6271
H 7.0916 1.0538 -5.3684
H 8.9224 0.7130 -3.7452
H 8.4114 0.2274 -1.3873
H 4.4041 1.7157 1.8827
H 5.1613 3.5359 3.3875
H 7.5780 4.0015 3.6717
H 9.2523 2.6284 2.4757
H 8.5293 0.8273 0.9701
