67
 
P 0.9362 -0.0766 0.0078
C 0.0941 -0.0354 -1.5873
C -1.2873 -0.0933 -1.7784
C -1.8090 -0.1642 -3.0771
C -0.9554 -0.1926 -4.1942
C -1.4988 -0.3958 -5.5774
C 0.4246 -0.0754 -4.0058
C 0.9407 0.0061 -2.7129
C 0.5059 -1.7810 0.4056
C 0.7999 -2.8630 -0.4412
C 0.3773 -4.1570 -0.0936
C -0.3266 -4.3787 1.1048
C -0.8069 -5.7475 1.4923
C -0.5992 -3.2976 1.9494
C -0.1953 -2.0116 1.5958
C 0.4543 1.2900 1.0836
C -0.9071 1.5444 1.3213
C -1.3088 2.6459 2.0751
C -0.3549 3.5121 2.6192
C -0.7967 4.7293 3.3844
C 1.0123 3.2377 2.4242
C 1.4160 2.1313 1.6540
Cu 3.3962 -0.0766 0.0078
C 5.5462 -0.0766 0.0078
N 6.2576 0.3332 -0.9702
C 5.7118 0.9068 -2.1779
C 4.9272 -0.1344 -2.9418
C 7.6692 0.2780 -0.6556
C 7.6987 -0.0678 0.8447
N 6.3357 -0.4321 1.1141
C 5.9176 -1.3034 2.1945
C 4.7621 -0.6921 2.9626
H -1.9624 -0.1149 -0.9446
H -2.8793 -0.2298 -3.2077
H -2.6006 -0.5296 -5.5605
H -1.0548 -1.3283 -5.9921
H -1.2403 0.4522 -6.2433
H 1.1012 -0.0791 -4.8555
H 2.0134 0.0658 -2.5911
H 1.3298 -2.7068 -1.3729
H 0.5936 -4.9840 -0.7580
H -0.5788 -6.4977 0.7072
H -1.9083 -5.7222 1.6399
H -0.3284 -6.0668 2.4427
H -1.1397 -3.4472 2.8767
H -0.4395 -1.1908 2.2561
H -1.6748 0.9097 0.9157
H -2.3677 2.8274 2.2222
H -1.9056 4.8239 3.3997
H -0.3929 5.6387 2.8909
H -0.4347 4.6873 4.4315
H 1.7594 3.8936 2.8523
H 2.4695 1.9329 1.4868
H 6.5322 1.3223 -2.8076
H 5.0449 1.7607 -1.9103
H 5.6390 -0.9370 -3.2452
H 4.5323 0.3368 -3.8715
H 4.0970 -0.5196 -2.2601
H 8.2029 1.2379 -0.8286
H 8.1091 -0.5315 -1.2765
H 7.8993 0.8331 1.4633
H 8.4409 -0.8677 1.0568
H 6.7778 -1.4998 2.8757
H 5.6008 -2.2914 1.7832
H 5.0834 0.2900 3.3623
H 4.5079 -1.3635 3.8170
H 3.8769 -0.5438 2.2753
