37
 
P 0.9771 0.0690 0.0686
C 0.2349 -1.0482 1.3433
C -1.2826 -1.0884 1.4394
C 0.8016 -2.4622 1.1354
C 0.4276 1.7804 0.4499
C 0.9101 2.3024 1.7980
C 0.8680 2.7231 -0.6791
C 0.4998 -0.6844 -1.5180
Cu 3.4371 0.0690 0.0686
N 5.5371 0.0690 0.0686
C 6.1808 1.2657 0.0136
C 7.5721 1.3116 -0.1030
C 8.2915 0.1156 -0.1621
Cl 10.0352 0.1474 -0.3536
C 7.6131 -1.1048 -0.0877
C 6.2186 -1.1073 0.0262
H 0.6236 -0.7106 2.3294
H -1.7350 -1.3875 0.4757
H -1.6736 -0.1088 1.7781
H -1.5658 -1.8413 2.2122
H 0.4369 -2.9069 0.1884
H 0.4971 -3.1331 1.9660
H 1.9153 -2.4355 1.1143
H -0.6837 1.7630 0.4592
H 2.0102 2.4483 1.7977
H 0.6175 1.6107 2.6108
H 0.4205 3.2825 1.9980
H 1.9763 2.7510 -0.7613
H 0.4951 3.7539 -0.4947
H 0.4491 2.3878 -1.6533
H -0.6109 -0.6984 -1.5755
H 0.9010 -1.7033 -1.6525
H 0.8646 -0.0349 -2.3405
H 5.6070 2.1828 0.0347
H 8.0815 2.2650 -0.1659
H 8.1577 -2.0390 -0.1378
H 5.6771 -2.0432 0.0556
