59
 
P 1.0717 0.0476 0.0510
C 0.3315 -0.7266 -1.4585
C -1.1863 -0.7930 -1.5414
C 0.9070 -0.0186 -2.6956
C 0.5041 -0.9354 1.5047
C 0.9554 -2.3910 1.5006
C 0.9426 -0.2501 2.8086
C 0.5997 1.8010 -0.0647
Cu 3.5317 0.0476 0.0510
C 5.6817 0.0476 0.0510
N 6.4345 1.1476 0.0532
C 5.9088 2.5136 0.0660
C 4.3309 2.4677 0.0603
C 6.4209 3.2229 1.3359
C 6.4413 3.2669 -1.1743
C 7.7168 0.7123 0.0452
C 7.6996 -0.6711 0.0354
N 6.4089 -1.0704 0.0378
C 5.8510 -2.4241 0.0347
C 6.3526 -3.1592 1.2919
C 4.2877 -2.3452 0.0459
C 6.3326 -3.1626 -1.2286
H 0.7157 -1.7698 -1.5040
H -1.6336 0.2153 -1.4650
H -1.5876 -1.4700 -0.7620
H -1.4655 -1.2292 -2.5296
H 0.5496 1.0280 -2.7624
H 0.6022 -0.5436 -3.6251
H 2.0201 -0.0176 -2.6608
H -0.6065 -0.9242 1.4775
H 2.0390 -2.4750 1.6813
H 0.6835 -2.8855 0.5495
H 0.4427 -2.9296 2.3280
H 2.0503 -0.1860 2.8724
H 0.5699 -0.8164 3.6903
H 0.5233 0.7773 2.8730
H -0.5110 1.8614 -0.0577
H 1.0028 2.3011 -0.9617
H 0.9648 2.3239 0.8434
H 3.9240 1.9351 0.9317
H 3.9251 1.9441 -0.8165
H 3.9523 3.5111 0.0671
H 6.0502 2.6994 2.2415
H 6.0854 4.2807 1.3670
H 7.5350 3.2202 1.3735
H 6.1062 2.7710 -2.1087
H 7.5562 3.2874 -1.1831
H 6.0922 4.3213 -1.1835
H 8.5982 1.3409 0.0457
H 8.5598 -1.3288 0.0283
H 6.0399 -2.6129 2.2078
H 7.4644 -3.2160 1.2963
H 5.9538 -4.1935 1.3352
H 3.9435 -1.7926 0.9311
H 3.8489 -3.3611 0.0711
H 3.8968 -1.8206 -0.8415
H 7.4435 -3.2298 -1.2545
H 6.0080 -2.6174 -2.1405
H 5.9255 -4.1946 -1.2617
