93
 
P 1.0639 -0.0767 0.0059
C 0.3100 -1.7115 0.2136
C 1.2225 -2.7777 0.3384
C 0.7919 -4.1084 0.4310
C 1.7682 -5.2527 0.5173
C -0.5772 -4.3711 0.4231
C -1.4976 -3.3181 0.3309
C -1.0604 -1.9863 0.2214
C 0.5455 0.9358 1.4175
C -0.2339 0.4341 2.4759
C -0.7189 1.3021 3.4746
C -1.5708 0.7948 4.5989
C -0.4230 2.6703 3.4104
C 0.3690 3.1670 2.3787
C 0.8558 2.3061 1.3952
C 0.7221 0.3906 -1.7158
C 0.0020 -0.4217 -2.6125
C -0.2590 0.0228 -3.9239
C -1.0095 -0.8330 -4.8992
C 0.1885 1.2859 -4.3327
C 0.8962 2.0963 -3.4493
C 1.1674 1.6496 -2.1558
Cu 3.5239 -0.0767 0.0059
P 5.9839 -0.0767 0.0059
C 6.9201 -1.5704 -0.6576
C 6.4620 -2.8188 0.1216
C 4.9920 -3.1596 -0.1875
C 4.7614 -3.4911 -1.6692
C 5.2243 -2.3165 -2.5340
C 6.6784 -1.9159 -2.1843
C 6.4161 1.2098 -1.3025
C 5.8783 2.6320 -0.9773
C 6.7561 3.4095 0.0353
C 8.1784 3.5788 -0.5144
C 8.7988 2.1973 -0.7283
C 7.9321 1.3539 -1.6894
C 6.4127 0.2536 1.9076
C 5.5479 0.9620 2.8475
C 4.1187 1.2688 2.6395
C 5.9848 1.4021 4.1247
C 7.2408 1.1131 4.5943
C 8.0843 0.3537 3.7971
C 7.6997 -0.0531 2.4789
H 2.2757 -2.5680 0.3395
H 2.8084 -4.9039 0.5546
H 1.6691 -5.9039 -0.3771
H 1.5910 -5.8568 1.4307
H -0.9235 -5.3953 0.4896
H -2.5528 -3.5449 0.3319
H -1.7783 -1.1851 0.1333
H -0.4879 -0.6143 2.5205
H -1.7039 -0.3057 4.5471
H -2.5713 1.2754 4.5516
H -1.0950 1.0491 5.5697
H -0.8076 3.3529 4.1592
H 0.5915 4.2259 2.3299
H 1.4464 2.7308 0.6012
H -0.3578 -1.3924 -2.3095
H -1.3331 -1.7899 -4.4395
H -0.3504 -1.0608 -5.7636
H -1.9087 -0.2925 -5.2641
H -0.0131 1.6440 -5.3355
H 1.2345 3.0750 -3.7671
H 1.7197 2.3045 -1.5021
H 8.0038 -1.4088 -0.5007
H 6.5760 -2.6430 1.2093
H 7.0858 -3.6989 -0.1531
H 4.3641 -2.2932 0.0777
H 4.7060 -4.0202 0.4356
H 3.6807 -3.6938 -1.8635
H 5.3208 -4.4143 -1.9406
H 4.5495 -1.4509 -2.3759
H 5.1436 -2.6148 -3.6078
H 6.9881 -1.0970 -2.8598
H 7.3167 -2.7919 -2.4479
H 5.8869 0.8425 -2.2038
H 4.8244 2.5810 -0.6324
H 5.8983 3.2322 -1.9167
H 6.7975 2.8854 1.0116
H 6.3285 4.4219 0.2047
H 8.8069 4.1710 0.1896
H 8.1484 4.1438 -1.4760
H 8.9149 1.6936 0.2524
H 9.8154 2.3329 -1.1685
H 8.4191 0.3762 -1.8563
H 7.9650 1.8882 -2.6648
H 3.7650 0.7612 1.7815
H 3.9308 2.3558 2.5656
H 3.5576 0.8577 3.5176
H 5.3280 1.9691 4.7880
H 7.5338 1.4648 5.5883
H 9.0532 0.1130 4.2252
H 8.4432 -0.6028 1.9282
