49
 
P 0.9642 0.0675 0.0644
C 0.2116 1.6286 -0.4411
C -1.1560 1.8949 -0.5938
C -1.5715 3.1676 -1.0235
C -0.6335 4.1767 -1.2794
F -1.0368 5.3948 -1.7191
C 0.7221 3.9307 -1.0776
C 1.1386 2.6678 -0.6609
C 0.5964 -0.9396 -1.4044
C 1.6397 -1.5240 -2.1369
C 1.3607 -2.3926 -3.2041
C 0.0389 -2.6928 -3.5463
F -0.2250 -3.5319 -4.5806
C -1.0093 -2.1430 -2.8078
C -0.7355 -1.2776 -1.7389
C 0.4990 -0.3358 1.7480
C -0.8585 -0.5071 2.0758
C -1.2398 -0.8117 3.3839
C -0.2670 -0.9630 4.3728
F -0.6466 -1.2343 5.6483
C 1.0939 -0.8405 4.0430
C 1.4863 -0.5294 2.7225
Cu 3.4242 0.0675 0.0644
N 5.5242 0.0675 0.0644
C 6.1641 0.3395 -1.1052
C 7.5621 0.2462 -1.1872
C 8.2889 0.5214 -2.4716
C 8.2777 -0.1311 -0.0443
C 7.6009 -0.3871 1.1506
C 6.2075 -0.2775 1.1874
H -1.8991 1.1434 -0.3941
H -2.6227 3.3750 -1.1648
H 1.4537 4.7128 -1.2510
H 2.2007 2.5013 -0.5097
H 2.6686 -1.3317 -1.8650
H 2.1702 -2.8468 -3.7599
H -2.0334 -2.4028 -3.0563
H -1.5717 -0.9071 -1.1660
H -1.6283 -0.4086 1.3234
H -2.2907 -0.9267 3.6297
H 1.8339 -0.9849 4.8188
H 2.5462 -0.4349 2.4282
H 5.5762 0.6022 -1.9756
H 7.5932 0.8486 -3.2734
H 8.8095 -0.3988 -2.8121
H 9.0412 1.3224 -2.3121
H 9.3561 -0.2283 -0.0817
H 8.1514 -0.6841 2.0335
H 5.6678 -0.5008 2.0979
