99
 
P 0.9560 0.0559 -0.0703
C -0.0315 -0.2086 -1.6174
C -1.3296 0.2224 -1.9159
C -1.8924 -0.0593 -3.1943
C -1.1574 -0.7533 -4.1846
C -1.7251 -1.1156 -5.5298
C 0.1358 -1.1417 -3.8935
C 0.6407 -0.8710 -2.6345
C 0.4629 -1.3497 0.9428
C 1.4537 -2.1380 1.4938
C 1.1402 -3.2934 2.2198
C -0.2015 -3.6615 2.4077
C -0.5488 -4.9639 3.0769
C -1.2156 -2.8157 1.9256
C -0.8845 -1.6618 1.1952
C 0.5954 1.8055 0.3008
C -0.1309 2.1346 1.4667
C -0.4726 3.4666 1.7517
C -0.0904 4.4960 0.8802
C -0.5001 5.9236 1.1391
C 0.6626 4.1771 -0.2607
C 1.0001 2.8435 -0.5506
Cu 3.4160 0.0559 -0.0703
P 5.8760 0.0559 -0.0703
C 6.6400 1.8160 -0.3467
C 6.3968 2.8265 -1.5486
C 5.1191 3.7251 -1.4800
C 4.9489 4.4107 -0.1130
C 4.9972 3.3444 0.9543
C 6.3771 2.6938 0.8739
C 6.6510 -0.5430 1.6419
C 6.3109 0.1480 3.0214
C 4.8102 0.0422 3.2936
C 4.4675 -1.4316 3.4998
C 4.9232 -2.2751 2.2915
C 6.3939 -2.0466 1.9634
C 6.2654 -0.8846 -1.6313
C 5.2332 -1.5233 -2.3729
C 3.8231 -1.5486 -1.9580
C 5.4976 -2.1827 -3.5864
C 6.7624 -2.2402 -4.1091
C 6.9770 -2.8749 -5.4523
C 7.8123 -1.7101 -3.3728
C 7.6027 -1.0649 -2.1311
C 8.8580 -0.6514 -1.4010
H -1.8937 0.7686 -1.1813
H -2.8952 0.2622 -3.4199
H -2.7926 -0.8327 -5.5974
H -1.6492 -2.2180 -5.6740
H -1.1597 -0.6250 -6.3531
H 0.7506 -1.6717 -4.6228
H 1.5664 -1.1968 -2.4275
H 2.4552 -1.8200 1.3194
H 1.9378 -3.9108 2.6140
H 0.3639 -5.5547 3.3103
H -1.1561 -5.5720 2.3701
H -1.1272 -4.8096 4.0098
H -2.2580 -3.0685 2.0851
H -1.6764 -1.0348 0.8070
H -0.4548 1.3635 2.1548
H -1.0467 3.6959 2.6441
H -1.1399 6.0168 2.0440
H -1.0908 6.2928 0.2729
H 0.3888 6.5761 1.2683
H 0.9693 4.9654 -0.9364
H 1.5620 2.6235 -1.4461
H 7.6922 1.6040 -0.3860
H 6.5125 2.3819 -2.5559
H 7.2279 3.5720 -1.4560
H 4.2259 3.1074 -1.6810
H 5.1777 4.5389 -2.2421
H 3.9881 4.9685 -0.0528
H 5.7680 5.1442 0.0887
H 4.1808 2.6001 0.8150
H 4.8705 3.8152 1.9550
H 6.4294 2.0947 1.6813
H 7.1770 3.4536 0.9924
H 7.7497 -0.4554 1.5108
H 6.7045 1.1422 3.2612
H 6.8709 -0.3517 3.8424
H 4.2282 0.4572 2.4402
H 4.5487 0.6100 4.2122
H 3.3778 -1.5440 3.6798
H 4.9932 -1.7882 4.4166
H 4.4070 -1.9764 1.3708
H 4.7279 -3.3456 2.5224
H 6.7207 -2.7158 1.1453
H 6.9843 -2.3498 2.8658
H 3.4677 -0.5334 -1.9047
H 3.5826 -2.0719 -1.0145
H 3.2692 -2.0474 -2.7744
H 4.7019 -2.6520 -4.1591
H 6.0302 -3.2803 -5.8783
H 7.7076 -3.7025 -5.3781
H 7.3448 -2.0972 -6.1533
H 8.8079 -1.8125 -3.7799
H 9.7647 -0.9436 -1.9675
H 8.8979 -1.1759 -0.4244
H 9.0015 0.4205 -1.2735
