49
 
P 1.0559 0.0498 -0.0663
C 0.1108 0.3984 -1.5801
C 0.6165 -1.7123 -0.0463
C 0.5459 1.2884 1.1112
C -0.8177 1.4006 1.4326
C -1.2421 2.3173 2.3951
C -0.3055 3.1261 3.0416
C 1.0591 3.0085 2.7309
C 1.4930 2.0811 1.7649
Cu 3.5159 0.0498 -0.0663
P 5.9759 0.0498 -0.0663
O 7.2227 0.0746 1.1075
C 6.7568 -0.8549 2.0919
C 7.6019 -0.9138 3.3640
O 6.4373 -1.3887 -0.8546
C 6.0681 -1.2919 -2.2068
C 6.6379 -2.4940 -2.9521
C 6.3947 1.7093 -0.6612
C 5.4216 2.6423 -1.0601
C 5.8179 3.8683 -1.6263
C 7.1757 4.1655 -1.7944
C 8.1422 3.2394 -1.4077
C 7.7548 2.0195 -0.8551
H -0.9826 0.3359 -1.4605
H 0.4683 -0.2807 -2.3872
H 0.3994 1.4259 -1.9007
H -0.4957 -1.7870 -0.0197
H 0.9789 -2.1353 0.9156
H 1.0220 -2.2833 -0.8985
H -1.5524 0.7644 0.9528
H -2.2950 2.3932 2.6441
H -0.6414 3.8354 3.7889
H 1.7733 3.6327 3.2498
H 2.5545 1.9542 1.5198
H 6.7622 -1.8876 1.6728
H 5.7266 -0.5974 2.4446
H 8.6363 -1.2498 3.1508
H 7.1426 -1.6623 4.0543
H 7.6117 0.0613 3.8920
H 6.4798 -0.3763 -2.6960
H 4.9588 -1.3183 -2.2870
H 7.7496 -2.4714 -2.9329
H 6.3014 -2.4858 -4.0104
H 6.2914 -3.4335 -2.4723
H 4.3667 2.4177 -0.9686
H 5.0778 4.5879 -1.9528
H 7.4837 5.1056 -2.2367
H 9.1941 3.4558 -1.5503
H 8.5260 1.3059 -0.5957
