127
 
P 0.9906 -0.0129 -0.0987
C -0.1837 1.5706 -0.3763
C -1.6078 1.6202 -0.5928
C -2.4654 0.4509 -0.8364
C -2.3338 2.8533 -0.5917
C -1.7163 4.0883 -0.4564
C -2.4576 5.3921 -0.4230
C -0.3696 4.1159 -0.3311
C 0.3568 2.9240 -0.2528
C 1.7311 3.1846 -0.0602
C 0.3707 -0.9509 -1.6889
C 0.0081 -0.1944 -2.8667
C 0.5362 1.1737 -3.1651
C -0.8923 -0.7091 -3.8279
C -1.4038 -1.9976 -3.7313
C -2.4341 -2.5567 -4.6768
C -0.9456 -2.8133 -2.7304
C -0.0857 -2.3552 -1.7205
C 0.2281 -3.4871 -0.7789
C 0.5959 -0.7026 1.6334
C -0.3002 -0.0212 2.5626
C -0.9278 1.3480 2.5187
C -0.6876 -0.6145 3.7636
C -0.2397 -1.8397 4.1635
C -0.7595 -2.3941 5.4620
C 0.7063 -2.4894 3.3818
C 1.1676 -1.9397 2.1516
C 2.3418 -2.6805 1.5386
Cu 3.4506 -0.0129 -0.0987
C 5.6006 -0.0129 -0.0987
N 6.3973 1.1465 0.0090
C 6.1644 2.6167 0.0687
C 6.9583 3.5647 0.9330
C 8.1839 3.2832 1.8912
C 9.5302 3.0548 1.1674
C 8.5114 4.4438 2.8708
C 6.5355 4.9255 0.9873
C 5.4876 5.4082 0.3006
C 4.7921 4.5818 -0.5024
C 5.0971 3.1978 -0.6802
C 4.1380 2.4273 -1.5712
C 3.5244 3.3691 -2.6824
C 4.2792 1.1238 -2.3364
C 7.6172 0.6673 0.2949
C 7.6369 -0.6611 0.4141
N 6.4138 -1.1442 0.2138
C 6.2665 -2.6231 0.2228
C 6.7474 -3.5333 1.2538
C 7.5281 -3.1056 2.4859
C 6.8956 -3.5936 3.7909
C 8.9692 -3.6564 2.3738
C 6.5744 -4.9415 1.0994
C 5.9908 -5.4852 -0.0241
C 5.6681 -4.6552 -1.0602
C 5.8734 -3.2624 -0.9676
C 5.8217 -2.4948 -2.2415
C 6.9186 -3.1275 -3.1769
C 4.3453 -2.4629 -2.6233
H -1.9042 -0.4751 -0.9263
H -2.9944 0.6449 -1.8005
H -3.1899 0.3758 -0.0076
H -3.4067 2.8590 -0.7060
H -3.5501 5.2247 -0.4249
H -2.1684 6.0214 -1.2924
H -2.1894 5.9411 0.5106
H 0.1174 5.0942 -0.2617
H 2.0761 4.2439 -0.0483
H 1.8889 2.8320 -1.0508
H 2.1396 2.6308 0.8043
H 1.2882 1.4206 -2.4336
H -0.2369 1.9656 -3.1830
H 1.0671 1.1585 -4.1432
H -1.2184 -0.0851 -4.6514
H -2.7762 -1.8114 -5.4212
H -3.3275 -2.8884 -4.0944
H -2.0228 -3.4449 -5.1986
H -1.3190 -3.8363 -2.7210
H 0.0294 -4.4987 -1.2044
H -0.6059 -3.6813 -0.0706
H 1.3002 -3.7209 -0.8782
H -0.6848 2.0341 1.7615
H -0.5529 1.9187 3.3950
H -2.0349 1.2731 2.5810
H -1.3752 -0.0927 4.4248
H -1.4741 -1.6897 5.9509
H 0.0762 -2.5581 6.1683
H -1.3142 -3.3356 5.2764
H 1.0937 -3.4319 3.7561
H 2.8094 -3.3341 2.3129
H 3.1375 -1.9968 1.1909
H 2.1008 -3.4920 0.8750
H 7.9267 2.4212 2.5482
H 9.8447 3.9908 0.6746
H 9.7153 3.6835 0.2811
H 10.3597 2.8800 1.8948
H 8.8679 5.3288 2.2909
H 9.3398 4.2049 3.5648
H 7.6159 4.7001 3.4757
H 6.9702 5.7116 1.5740
H 5.2054 6.4546 0.3983
H 3.9886 5.1219 -0.9491
H 3.6053 2.0651 -0.7254
H 4.3518 3.7349 -3.3207
H 2.9375 4.2432 -2.3547
H 2.7754 2.8669 -3.3189
H 4.9215 1.2562 -3.2194
H 3.2639 0.8202 -2.6135
H 4.4696 0.1624 -1.9504
H 8.4867 1.2024 0.4424
H 8.5265 -1.2318 0.6413
H 7.5842 -2.0077 2.5470
H 6.8485 -4.7025 3.8420
H 5.8737 -3.1794 3.8936
H 7.5184 -3.2495 4.6432
H 8.9902 -4.7696 2.3723
H 9.5907 -3.3124 3.2253
H 9.4442 -3.3108 1.4304
H 6.9158 -5.6539 1.8385
H 5.8681 -6.5577 -0.1381
H 5.3222 -5.1174 -1.9775
H 6.1497 -1.4464 -2.1237
H 6.8339 -4.2290 -3.3101
H 7.9203 -3.0048 -2.6868
H 7.0009 -2.6838 -4.1843
H 4.0070 -3.4583 -2.9569
H 4.0945 -1.6851 -3.3642
H 3.7756 -2.1871 -1.6954
