36
 
P 1.2750 0.0000 0.0000
O 0.4323 -0.7292 -1.3199
C -0.9625 -0.7021 -1.2119
C -1.4022 0.0248 0.0440
C -2.9331 0.0557 0.1002
C -0.7784 -0.7685 1.2550
O 0.6236 -1.0546 1.1542
O 0.6286 1.5389 -0.2904
C -0.7823 1.4729 -0.0390
Cu 3.7350 0.0003 -0.0005
N 5.8350 0.0006 -0.0009
C 6.4793 0.7120 -0.9476
C 5.6472 1.3336 -2.0149
C 7.8767 0.8433 -0.8862
C 8.5701 0.2438 0.1734
C 7.8768 -0.5145 1.1195
C 6.4868 -0.6449 1.0022
C 5.6976 -1.4877 1.9550
H -1.3315 -1.7520 -1.2120
H -1.3605 -0.1970 -2.1191
H -3.3330 -0.9830 0.1012
H -3.3343 0.5680 -0.8030
H -3.2843 0.5843 1.0062
H -1.2902 -1.7542 1.3117
H -0.9862 -0.2268 2.2014
H -1.2766 2.0033 -0.8831
H -1.0160 2.0284 0.8921
H 4.5513 1.1037 -1.8020
H 5.9579 0.9105 -2.9966
H 5.8292 2.4283 -2.0310
H 8.4197 1.4159 -1.6268
H 9.6439 0.3562 0.2600
H 8.4144 -0.9903 1.9312
H 6.3548 -1.9498 2.7247
H 5.2252 -2.3117 1.3787
H 4.8940 -0.8951 2.4381
