79
 
P 0.9873 -0.0290 0.0949
C 0.4838 1.0370 -1.3014
C -0.4047 2.1280 -1.2005
C -0.8634 2.7849 -2.3442
C -0.4606 2.3619 -3.6093
C 0.4203 1.2888 -3.7332
C 0.8933 0.6347 -2.5896
C 0.5694 -1.7941 0.1265
C 1.0278 -2.6292 -0.9099
C 0.6523 -3.9778 -0.9565
C -0.1764 -4.5083 0.0337
C -0.6246 -3.6938 1.0745
C -0.2577 -2.3451 1.1222
C 0.0990 0.7685 1.4696
C 0.5877 2.1677 1.7533
C -0.3183 3.0376 2.3892
C 0.0142 4.3676 2.6307
C 1.2624 4.8419 2.2609
C 2.1807 3.9850 1.6654
C 1.8798 2.6407 1.3894
Cu 3.4473 -0.0290 0.0949
C 5.5973 -0.0290 0.0949
N 6.4059 1.0423 0.0317
C 5.9073 2.4165 0.1268
C 5.9132 3.4810 -1.0316
C 5.0318 4.6527 -0.5000
C 5.5616 5.2037 0.8591
C 5.8191 4.1033 1.9008
C 6.6633 3.0241 1.3023
C 7.6693 0.5460 0.0384
C 7.5982 -0.8545 0.0963
N 6.2847 -1.1951 0.1252
C 5.4597 -2.3878 -0.1435
C 5.4125 -2.3688 -1.6843
C 6.4817 -3.2953 -2.2858
C 6.0917 -4.7261 -1.9539
C 6.1855 -4.9363 -0.4365
C 5.3737 -3.8850 0.3411
H -0.8001 2.4723 -0.2673
H -1.5586 3.6078 -2.2460
H -0.8441 2.8570 -4.4922
H 0.7173 0.9498 -4.7185
H 1.5484 -0.2146 -2.7247
H 1.6596 -2.2425 -1.6966
H 0.9933 -4.6116 -1.7661
H -0.4760 -5.5484 -0.0066
H -1.2696 -4.1045 1.8404
H -0.6434 -1.7466 1.9309
H 0.3733 0.1976 2.3844
H -1.0003 0.7037 1.3463
H -1.2989 2.6876 2.6823
H -0.6976 5.0343 3.0977
H 1.5264 5.8782 2.4342
H 3.1141 4.4111 1.4253
H 2.6467 1.9958 0.8831
H 4.8182 2.2640 0.3277
H 5.4465 3.1221 -1.9773
H 6.9267 3.8728 -1.2830
H 4.0137 4.2328 -0.4039
H 4.9185 5.4972 -1.2123
H 4.8572 5.9374 1.3077
H 6.5230 5.7203 0.6689
H 4.8935 3.5988 2.2453
H 6.3333 4.5062 2.7947
H 6.8438 2.2577 2.0825
H 7.6577 3.4030 0.9590
H 8.5695 1.1519 0.0203
H 8.4410 -1.5343 0.0717
H 4.5213 -2.0690 0.3968
H 5.6224 -1.3517 -2.0930
H 4.3992 -2.6382 -2.0165
H 7.5071 -3.0760 -1.8988
H 6.4993 -3.1613 -3.3859
H 6.7570 -5.4461 -2.4747
H 5.0537 -4.8934 -2.3282
H 7.2398 -4.8892 -0.1149
H 5.7844 -5.9558 -0.2105
H 5.4314 -4.0586 1.4357
H 4.3196 -4.1539 0.0616
