71
 
P 0.9262 0.0322 0.0593
C 0.1460 1.3951 1.0832
C -1.3836 1.4190 1.0677
C 0.6050 1.2381 2.5625
C 0.6886 2.7484 0.5858
C 0.4948 0.5965 -1.6089
C 1.3677 1.3846 -2.3607
C 1.0272 1.7532 -3.6721
C -0.1708 1.3130 -4.2490
C -1.0308 0.4920 -3.5216
C -0.7008 0.1312 -2.2101
C 0.4316 -1.5515 0.7969
C -0.9280 -1.8985 0.8696
C -1.3314 -3.1082 1.4396
C -0.3792 -3.9969 1.9372
C 0.9786 -3.6865 1.8324
C 1.3784 -2.4750 1.2502
Cu 3.3862 0.0322 0.0593
P 5.8462 0.0322 0.0593
O 6.9131 -1.2277 -0.3964
C 6.3929 -1.7790 -1.6334
C 7.1089 -3.0839 -2.0283
C 4.8617 -2.1149 -1.6834
O 6.2770 1.2494 -1.0529
C 5.7460 2.4954 -0.6381
C 6.2999 2.9518 0.7285
C 6.1579 3.5381 -1.6827
O 6.3209 -0.0413 1.7277
C 5.8275 -1.1445 2.4484
C 6.3388 -1.0961 3.8926
C 4.3276 -1.1026 2.5283
H -1.8039 0.5546 1.6145
H -1.7674 1.4601 0.0321
H -1.7435 2.3195 1.6135
H 0.3235 0.2475 2.9795
H 0.1324 2.0113 3.2108
H 1.7064 1.3519 2.6762
H 0.3601 2.9540 -0.4496
H 1.8027 2.7536 0.6160
H 0.3253 3.5836 1.2214
H 2.3055 1.7048 -1.9232
H 1.6961 2.3745 -4.2486
H -0.4279 1.5957 -5.2636
H -1.9482 0.1316 -3.9790
H -1.3836 -0.5223 -1.6829
H -1.6882 -1.2471 0.4756
H -2.3841 -3.3547 1.4929
H -0.6942 -4.9307 2.3864
H 1.7173 -4.3891 2.1976
H 2.4157 -2.2640 1.1389
H 6.6087 -1.0458 -2.4381
H 6.9014 -3.9078 -1.3091
H 8.2009 -2.9390 -2.1252
H 6.7309 -3.4230 -3.0230
H 4.5797 -2.9199 -0.9710
H 4.5869 -2.4371 -2.7112
H 4.2057 -1.2456 -1.5095
H 4.6267 2.4577 -0.6155
H 7.4098 2.8971 0.7252
H 5.9060 2.3270 1.5512
H 5.9785 3.9867 0.9631
H 7.2666 3.5822 -1.7648
H 5.7865 4.5468 -1.3984
H 5.7393 3.2808 -2.6778
H 6.1839 -2.0875 1.9835
H 6.0164 -0.1591 4.4020
H 7.4427 -1.1699 3.9383
H 5.9104 -1.9548 4.4557
H 3.9476 -0.1395 2.9358
H 3.9210 -1.9710 3.0790
H 4.0548 -1.2194 1.5218
