55
 
P 1.0796 -0.0127 0.0592
C 0.3194 1.6690 0.3602
C -1.2120 1.7412 0.3726
C 0.8378 2.1594 1.7435
C 0.8359 2.6343 -0.7220
C 0.6594 -0.3306 -1.6938
C 1.6804 -0.5375 -2.6304
C 1.3735 -0.8479 -3.9654
C 0.0439 -0.9568 -4.3823
C -0.9842 -0.7996 -3.4564
C -0.6827 -0.5094 -2.1194
C 0.6070 -1.1166 1.4114
C -0.7580 -1.3794 1.6163
C -1.1850 -2.2135 2.6476
C -0.2481 -2.8290 3.4741
C 1.1218 -2.6233 3.2512
C 1.5592 -1.7647 2.2178
Cu 3.5396 -0.0127 0.0592
P 5.9996 -0.0127 0.0592
O 6.8186 1.4638 0.4324
C 8.2188 1.3610 0.4543
C 8.6726 -0.0240 0.0306
C 10.2010 -0.0901 0.0178
C 8.0697 -1.0297 1.0825
O 6.6712 -0.8945 1.3374
O 6.6415 0.0939 -1.5032
C 8.0325 -0.2607 -1.3955
H -1.6613 1.1684 1.2031
H -1.6291 1.4377 -0.5943
H -1.5317 2.7949 0.5172
H 0.5009 1.4908 2.5666
H 0.4712 3.1828 1.9790
H 1.9505 2.1924 1.7849
H 0.4645 2.3231 -1.7193
H 1.9474 2.6599 -0.7515
H 0.4707 3.6669 -0.5321
H 2.7145 -0.4814 -2.3208
H 2.1674 -1.0120 -4.6805
H -0.1906 -1.1848 -5.4165
H -2.0156 -0.9182 -3.7750
H -1.5159 -0.4568 -1.4380
H -1.5055 -0.9460 0.9736
H -2.2453 -2.3821 2.7995
H -0.5907 -3.4736 4.2766
H 1.8330 -3.1337 3.8881
H 2.6260 -1.6055 2.0336
H 8.5681 1.6020 1.4814
H 8.6264 2.1261 -0.2427
H 10.5926 0.1518 1.0319
H 10.6055 0.6657 -0.6899
H 10.5493 -1.0984 -0.2763
H 8.5725 -0.8461 2.0575
H 8.2988 -2.0737 0.7807
H 8.5693 0.3932 -2.1158
H 8.1951 -1.3130 -1.7145
