73
 
P 1.0221 -0.0805 -0.0551
C 0.1817 0.8781 -1.3694
C -0.9438 0.4222 -2.0782
C -1.4849 1.1674 -3.1269
C -0.8983 2.3707 -3.5113
C 0.2346 2.8337 -2.8418
C 0.7731 2.0953 -1.7782
C 0.6240 -1.8363 -0.2846
C 1.6816 -2.7261 -0.3965
C 1.4308 -4.1102 -0.5550
C 0.1109 -4.5874 -0.6221
C -0.9532 -3.6961 -0.4905
C -0.7001 -2.3332 -0.2961
C 0.4539 0.8487 1.3998
C 0.8160 0.3826 2.6973
C 1.7769 -0.7623 2.9384
C 0.2229 0.9663 3.8312
C -0.7257 1.9793 3.6979
C -1.0742 2.4441 2.4348
C -0.4896 1.8941 1.2976
Cu 3.4821 -0.0805 -0.0551
P 5.9421 -0.0805 -0.0551
N 6.8457 0.1417 -1.5709
C 6.3721 1.3484 -2.2462
C 8.2894 -0.0384 -1.7475
C 8.8227 -1.1716 -0.9520
N 9.0950 -0.9268 0.5063
C 8.6501 0.1489 1.4798
C 7.9761 1.4413 0.9831
N 6.4937 1.4053 0.7132
C 5.7021 1.5082 1.9506
N 6.4195 -1.8684 0.2485
C 5.5679 -2.9211 -0.2947
C 7.3391 -2.3808 1.3523
C 8.8872 -2.2129 1.1322
H -1.4252 -0.5003 -1.8600
H -2.3570 0.7979 -3.6502
H -1.3168 2.9346 -4.3356
H 0.6986 3.7605 -3.1573
H 1.6665 2.4676 -1.2903
H 2.6707 -2.2654 -0.3398
H 2.2421 -4.8225 -0.6315
H -0.0954 -5.6453 -0.7637
H -1.9755 -4.0615 -0.5311
H -1.5514 -1.6845 -0.1572
H 2.1896 -1.2149 2.0198
H 1.2607 -1.5733 3.4962
H 2.6416 -0.4054 3.5341
H 0.4694 0.6102 4.8249
H -1.2059 2.3956 4.5740
H -1.8255 3.2155 2.3285
H -0.8426 2.2715 0.3543
H 5.2616 1.4100 -2.2059
H 6.6669 1.3304 -3.3152
H 6.8039 2.2431 -1.7521
H 8.8991 0.8720 -1.6494
H 8.4043 -0.3638 -2.8087
H 9.7405 -1.5893 -1.4175
H 8.1474 -2.0286 -1.1771
H 9.5491 0.3826 2.0915
H 8.0168 -0.1761 2.3166
H 8.5585 1.8605 0.1548
H 8.1455 2.1719 1.8076
H 5.9681 2.4186 2.5248
H 5.8297 0.6166 2.6083
H 4.6213 1.5877 1.6887
H 4.5461 -2.6888 -0.0503
H 5.7420 -3.9134 0.1882
H 5.7652 -3.0562 -1.3736
H 7.0353 -1.8960 2.2721
H 7.2041 -3.4497 1.6295
H 9.3949 -3.0107 0.5148
H 9.4596 -2.2819 2.0867
