50
 
P 0.9515 0.0736 -0.0472
O 0.4724 -1.2517 -1.0208
C 0.9031 -1.2132 -2.3443
C 0.4341 -2.5257 -2.9765
O 0.5637 0.3543 1.5897
C -0.8246 0.1249 1.7278
C -1.2220 0.1632 3.1967
C 0.2213 1.4418 -0.9808
C -1.0110 1.4306 -1.6449
C -1.3509 2.5079 -2.4836
C -0.4805 3.5961 -2.6406
C 0.7190 3.6339 -1.9348
C 1.0667 2.5631 -1.1140
Cu 3.4115 0.0736 -0.0472
P 5.8715 0.0736 -0.0472
N 6.7529 1.5306 0.4435
C 8.1961 1.4335 0.4120
C 8.6024 0.0472 -0.0533
C 10.1294 -0.0190 -0.0814
C 8.0125 -0.9812 1.0050
N 6.5456 -0.8686 1.2537
N 6.5406 0.0149 -1.6507
C 8.0094 -0.1742 -1.5144
H 2.0089 -1.1391 -2.4094
H 0.3991 -0.3954 -2.8927
H 0.9322 -3.3939 -2.4909
H 0.6547 -2.5379 -4.0614
H -0.6656 -2.6493 -2.8384
H -1.1281 -0.8756 1.3343
H -1.3926 0.9300 1.2140
H -0.7130 -0.6470 3.7603
H -2.3215 0.0215 3.2882
H -0.9536 1.1457 3.6368
H -1.6767 0.5855 -1.5558
H -2.2780 2.4927 -3.0376
H -0.7280 4.4094 -3.3120
H 1.3938 4.4770 -2.0434
H 2.0210 2.6014 -0.5978
H 6.3976 1.8726 1.3660
H 8.5958 1.6462 1.4292
H 8.5786 2.2205 -0.2740
H 10.5303 0.1970 0.9334
H 10.5271 0.7536 -0.7768
H 10.4725 -1.0191 -0.4073
H 8.5251 -0.8369 1.9810
H 8.2501 -2.0122 0.6650
H 6.2851 -0.5030 2.1952
H 6.2899 0.8929 -2.1607
H 8.5038 0.5235 -2.2281
H 8.2609 -1.2017 -1.8504
