56
 
P 1.0510 0.0814 -0.0278
C 0.2591 -1.0210 1.2837
C -1.2703 -0.9865 1.2923
C 0.7297 -2.4833 1.0743
C 0.7644 -0.6115 2.6928
C 0.4950 1.6759 0.6410
C 1.3100 2.5231 1.4035
C 0.7867 3.7337 1.8974
C -0.5339 4.1087 1.6148
C -1.3324 3.2896 0.8216
C -0.8191 2.0888 0.3345
C 0.6948 -0.6264 -1.6392
C -0.6322 -0.7486 -2.1212
C -0.8851 -1.2463 -3.3993
C 0.1816 -1.5990 -4.2214
C 1.5050 -1.4523 -3.7614
C 1.7735 -0.9698 -2.4571
Cu 3.5110 0.0814 -0.0278
N 5.6110 0.0814 -0.0278
C 6.4483 -0.6508 -0.7766
N 7.7375 -0.3918 -0.4490
C 8.9258 -1.0625 -0.9290
C 8.8339 -2.1550 -1.8169
C 9.9790 -2.8631 -2.1934
C 11.2293 -2.4912 -1.6979
C 11.3402 -1.4022 -0.8348
C 10.2018 -0.6920 -0.4528
C 7.6823 0.5781 0.4957
C 6.3651 0.8510 0.7667
H -1.6781 -1.3521 0.3397
H -1.6443 0.0252 1.5204
H -1.6672 -1.6574 2.0815
H 0.3251 -2.9238 0.1408
H 0.4010 -3.1294 1.9213
H 1.8410 -2.5460 1.0369
H 0.5261 0.4397 2.9403
H 1.8631 -0.7585 2.7928
H 0.2779 -1.2358 3.4759
H 2.3303 2.2388 1.6285
H 1.3982 4.3859 2.5048
H -0.9408 5.0359 2.0013
H -2.3507 3.5802 0.5849
H -1.4614 1.4785 -0.2853
H -1.4899 -0.4474 -1.5431
H -1.9084 -1.3447 -3.7567
H -0.0282 -1.9762 -5.2179
H 2.3106 -1.7143 -4.4305
H 2.8035 -0.8344 -2.0402
H 6.1097 -1.3794 -1.4992
H 7.8830 -2.4889 -2.2047
H 9.8937 -3.7125 -2.8583
H 12.1124 -3.0498 -1.9772
H 12.3080 -1.1142 -0.4453
H 10.3341 0.1306 0.2326
H 8.5209 1.0452 0.9896
H 5.9795 1.5620 1.4850
