45
 
P 0.9324 -0.0379 0.0632
C 0.1322 -0.7499 1.5982
C -1.3935 -0.7405 1.5533
C 0.6315 -2.2112 1.7399
C 0.5960 0.0024 2.8706
C 0.3782 1.6589 0.3218
C 1.1882 2.6136 0.9308
C 0.6827 3.8973 1.1752
C -0.6196 4.2375 0.7849
C -1.4140 3.3046 0.1207
C -0.9161 2.0234 -0.1163
C 0.5740 -1.0661 -1.3725
C -0.7544 -1.3146 -1.8003
C -1.0117 -2.1364 -2.8979
C 0.0509 -2.7042 -3.5948
C 1.3756 -2.4319 -3.2024
C 1.6489 -1.6044 -2.0859
Cu 3.3924 -0.0379 0.0632
N 5.4924 -0.0379 0.0632
C 6.3234 0.4436 1.0003
O 7.5791 0.2402 0.6608
C 7.5791 -0.3702 -0.5069
C 6.2712 -0.5543 -0.8954
H -1.7672 -1.3535 0.7210
H -1.7767 0.2906 1.4893
H -1.8062 -1.1837 2.4812
H 0.3128 -2.8408 0.8826
H 0.2478 -2.6805 2.6724
H 1.7449 -2.2509 1.7874
H 0.3328 1.0743 2.8402
H 1.6934 -0.0919 3.0303
H 0.0902 -0.4119 3.7698
H 2.1883 2.3456 1.2415
H 1.2969 4.6257 1.6809
H -1.0129 5.2240 0.9928
H -2.4182 3.5681 -0.1973
H -1.5572 1.3156 -0.6284
H -1.6122 -0.8837 -1.3118
H -2.0365 -2.3315 -3.2081
H -0.1631 -3.3460 -4.4445
H 2.1785 -2.8722 -3.7746
H 2.6802 -1.3526 -1.7416
H 6.0021 0.9100 1.9216
H 8.4623 -0.6709 -1.0547
H 5.9107 -1.0194 -1.8036
