51
 
P 1.0944 -0.0189 -0.0270
C 0.3538 -1.6256 -0.6434
C -1.1774 -1.6819 -0.6991
C 0.9166 -1.8411 -2.0781
C 0.8219 -2.7953 0.2522
C 0.5015 -0.1059 1.7207
C 1.2662 -0.5733 2.8090
C 0.7127 -0.6013 4.1082
C -0.5852 -0.1362 4.3442
C -1.3283 0.3875 3.2923
C -0.7908 0.4062 2.0000
C 0.6816 1.3638 -1.1297
C -0.6661 1.6894 -1.4276
C -0.9792 2.7540 -2.2799
C 0.0436 3.5257 -2.8258
C 1.3826 3.2380 -2.5083
C 1.7124 2.1503 -1.6614
Cu 3.5544 -0.0189 -0.0270
N 5.6544 -0.0189 -0.0270
C 6.3140 0.9771 -0.6694
N 7.6654 0.9349 -0.7803
C 8.3840 -0.0960 -0.2549
O 9.7276 -0.1541 -0.4172
C 10.4406 0.7615 -1.1655
C 7.7194 -1.1141 0.4381
C 6.3282 -1.0501 0.5431
H -1.6049 -1.0031 -1.4588
H -1.6050 -1.4761 0.2980
H -1.4937 -2.7101 -0.9904
H 0.5980 -1.0227 -2.7620
H 0.5715 -2.7986 -2.5251
H 2.0311 -1.8524 -2.0885
H 0.3922 -2.6935 1.2685
H 1.9281 -2.8589 0.3391
H 0.4577 -3.7651 -0.1541
H 2.2749 -0.9293 2.6658
H 1.2840 -0.9851 4.9435
H -1.0140 -0.1686 5.3420
H -2.3250 0.7766 3.4789
H -1.4022 0.8329 1.2204
H -1.4932 1.1352 -1.0130
H -2.0159 2.9844 -2.5163
H -0.2094 4.3500 -3.4884
H 2.1543 3.8676 -2.9286
H 2.7588 1.8936 -1.3878
H 5.7601 1.7913 -1.1154
H 11.5183 0.5002 -1.1455
H 10.3100 1.7812 -0.7457
H 10.0939 0.7491 -2.2228
H 8.2614 -1.9510 0.8611
H 5.7786 -1.8398 1.0389
