54
 
P 1.0538 0.0369 -0.0758
C 0.2793 1.6560 -0.1178
C -1.0887 1.9140 -0.2390
C -1.5400 3.2462 -0.2241
C -0.6328 4.3072 -0.0825
C 0.7294 4.0461 0.0450
C 1.1802 2.7294 0.0245
C 0.6071 -0.5215 -1.7386
C 0.9792 0.1356 -2.9127
C 0.5638 -0.3692 -4.1575
C -0.2130 -1.5326 -4.2356
C -0.5684 -2.2085 -3.0707
C -0.1613 -1.7079 -1.8302
C 0.5764 -0.8557 1.4336
C 1.0257 -2.1928 1.6312
O 1.8721 -2.7676 0.7294
C 2.4453 -4.0243 0.8472
C 0.5508 -2.9218 2.7443
C -0.3567 -2.3517 3.6307
C -0.7886 -1.0414 3.4399
C -0.3222 -0.2932 2.3541
Cu 3.5138 0.0369 -0.0758
N 5.6138 0.0369 -0.0758
C 6.2414 0.3543 -1.2337
C 7.6241 0.2513 -1.3283
C 8.3687 -0.1732 -0.2115
O 9.7168 -0.3298 -0.2652
C 10.4756 -0.1872 -1.4109
C 7.6931 -0.4614 0.9838
C 6.2990 -0.3544 1.0296
H -1.7924 1.1009 -0.3374
H -2.5941 3.4631 -0.3164
H -0.9799 5.3328 -0.0665
H 1.4380 4.8591 0.1643
H 2.2450 2.5463 0.1350
H 1.5795 1.0302 -2.8634
H 0.8405 0.1418 -5.0677
H -0.5379 -1.9141 -5.1971
H -1.1621 -3.1165 -3.1307
H -0.4551 -2.2566 -0.9417
H 2.9996 -4.2715 -0.0808
H 1.6666 -4.8053 0.9872
H 3.1550 -4.0464 1.7032
H 0.8530 -3.9452 2.9250
H -0.7329 -2.9360 4.4618
H -1.5036 -0.6124 4.1284
H -0.6984 0.7089 2.2220
H 5.6583 0.6495 -2.0956
H 8.0945 0.4814 -2.2734
H 11.5421 -0.3781 -1.1804
H 10.3760 0.8447 -1.8095
H 10.1429 -0.9193 -2.1803
H 8.2361 -0.7916 1.8611
H 5.7578 -0.6078 1.9322
