54
 
P 1.0053 0.0873 0.0485
C 0.0513 -0.0415 1.6220
C -1.0924 0.7165 1.9255
C -1.7313 0.5823 3.1700
C -1.2400 -0.2998 4.1352
C -0.1034 -1.0567 3.8623
C 0.5387 -0.9312 2.6190
C 0.5316 1.7923 -0.4100
C 0.8752 2.9204 0.3444
C 0.4001 4.1910 -0.0271
C -0.4067 4.3509 -1.1589
C -0.7229 3.2442 -1.9442
C -0.2572 1.9729 -1.5758
C 0.6103 -1.4549 -0.9099
C 1.0999 -1.6482 -2.2434
O 1.8767 -0.6990 -2.8365
C 2.3092 -0.7407 -4.1556
C 0.7541 -2.8275 -2.9560
C -0.0734 -3.7882 -2.3940
C -0.5845 -3.5926 -1.1178
C -0.2495 -2.4453 -0.3820
Cu 3.4653 0.0873 0.0485
N 5.5653 0.0873 0.0485
C 6.1906 1.2134 0.4695
C 7.5887 1.3281 0.3698
O 8.2511 2.4659 0.7012
C 7.6536 3.6270 1.1492
C 8.3120 0.2407 -0.1346
C 7.6452 -0.9189 -0.5404
C 6.2524 -0.9739 -0.4481
H -1.4998 1.4102 1.2107
H -2.6119 1.1682 3.3920
H -1.7387 -0.3931 5.0955
H 0.2774 -1.7350 4.6218
H 1.4288 -1.5276 2.4512
H 1.4904 2.8168 1.2232
H 0.6464 5.0575 0.5694
H -0.7856 5.3321 -1.4281
H -1.3404 3.3758 -2.8291
H -0.5363 1.1313 -2.2004
H 2.9230 0.1530 -4.3800
H 1.4411 -0.7527 -4.8553
H 2.9316 -1.6447 -4.3354
H 1.1106 -3.0185 -3.9619
H -0.3280 -4.6800 -2.9596
H -1.2499 -4.3389 -0.7030
H -0.6901 -2.3418 0.5946
H 5.5808 2.0266 0.8378
H 8.4189 4.4236 1.2392
H 7.1857 3.4552 2.1412
H 6.8845 3.9701 0.4220
H 9.3888 0.3014 -0.2318
H 8.2000 -1.7544 -0.9475
H 5.7155 -1.8463 -0.7962
