33
 
P 1.2750 0.0000 0.0000
N 0.3855 1.4974 -0.3102
C -1.0526 1.3848 -0.3160
C -1.4556 -0.0433 0.0017
C -2.9826 -0.1023 0.0157
C -0.8637 -0.9716 -1.1426
N 0.6095 -0.8845 -1.3448
N 0.6064 -0.2641 1.5843
C -0.8678 -0.4125 1.4315
Cu 3.7350 0.0003 -0.0005
N 5.8350 0.0006 -0.0009
C 6.4771 -0.3066 1.1579
C 7.8700 -0.2178 1.2348
Cl 8.7011 -0.5787 2.7369
C 8.5896 0.1858 0.1075
C 7.9119 0.4869 -1.0766
C 6.5169 0.3898 -1.1112
H 0.7322 1.8953 -1.2151
H -1.4440 1.7057 -1.3093
H -1.4441 2.0982 0.4414
H -3.3807 0.2165 -0.9733
H -3.3770 0.6002 0.7839
H -3.3302 -1.1273 0.2411
H -1.3524 -0.7185 -2.1108
H -1.1272 -2.0248 -0.9150
H 0.8651 -0.4037 -2.2370
H 0.8645 0.5390 2.2017
H -1.3535 0.2251 2.2045
H -1.1396 -1.4625 1.6636
H 5.8980 -0.5951 2.0255
H 9.6678 0.2748 0.1514
H 8.4614 0.8084 -1.9517
H 5.9756 0.6454 -2.0121
