36
 
P 1.2750 0.0000 0.0000
N 0.3925 1.4979 -0.3190
C -1.0450 1.3892 -0.3194
C -1.4513 -0.0383 0.0006
C -2.9768 -0.0940 0.0143
C -0.8608 -0.9699 -1.1432
N 0.6128 -0.8895 -1.3419
N 0.6088 -0.2552 1.5855
C -0.8645 -0.4062 1.4322
Cu 3.7350 0.0003 -0.0005
N 5.8350 0.0006 -0.0009
C 6.5009 -0.5639 1.0378
N 7.8532 -0.4730 1.1069
C 8.5671 0.1716 0.1421
O 9.9116 0.3002 0.2461
C 10.6301 -0.1157 1.3491
C 7.8969 0.7267 -0.9528
C 6.5049 0.6307 -0.9996
H 0.7412 1.8898 -1.2256
H -1.4366 1.7115 -1.3118
H -1.4313 2.1036 0.4397
H -3.3722 0.2255 -0.9755
H -3.3681 0.6099 0.7825
H -3.3251 -1.1186 0.2400
H -1.3454 -0.7150 -2.1127
H -1.1282 -2.0221 -0.9159
H 0.8761 -0.4190 -2.2373
H 0.8740 0.5404 2.2088
H -1.3493 0.2312 2.2052
H -1.1353 -1.4569 1.6643
H 5.9520 -1.0597 1.8260
H 11.7068 0.1008 1.1948
H 10.5000 -1.2079 1.5000
H 10.2882 0.4277 2.2580
H 8.4357 1.2455 -1.7362
H 5.9524 1.0788 -1.8152
