64
 
C 0.9010 -0.6430 -0.0020
N -0.3440 -1.0148 0.0904
C -0.9078 -2.2275 -0.4452
C -1.1234 -1.7051 -1.8857
C -0.0983 -2.3408 -2.8141
C -0.5807 -3.7488 -3.0280
C -0.6005 -4.4448 -1.6965
C -1.3065 -3.7294 -0.5233
C -1.0513 0.1287 0.3527
C -0.1693 1.1945 0.3785
N 1.0578 0.6964 0.1246
C 2.3824 1.3300 -0.0604
C 2.9049 0.8937 -1.4490
C 2.0383 1.5167 -2.5595
C 2.2734 3.0250 -2.5568
C 1.8267 3.6219 -1.2122
C 2.4666 2.8927 -0.0034
Cu 2.6584 -1.8814 -0.0135
N 4.3750 -3.0911 -0.0247
C 5.5759 -2.4643 0.1105
C 6.7655 -3.1976 0.1262
C 6.7182 -4.5840 0.0121
C 5.4827 -5.2267 -0.0849
C 5.4137 -6.6199 -0.1171
C 4.1813 -7.2551 -0.1451
C 2.9837 -6.5232 -0.1681
C 1.7148 -7.3217 -0.1423
O 1.7548 -8.5414 -0.2020
C 0.3756 -6.7175 -0.0471
C 3.0551 -5.0926 -0.1814
C 4.2982 -4.4536 -0.1106
H -1.5809 -2.2160 0.4166
H -0.9532 -0.6180 -2.0317
H -2.1689 -1.8758 -2.1728
H 0.9363 -2.3033 -2.3730
H -0.0753 -1.8155 -3.7846
H 0.1053 -4.2940 -3.7121
H -1.6003 -3.7309 -3.4622
H 0.4687 -4.4920 -1.4642
H -1.0824 -5.4184 -1.8737
H -1.1711 -4.3123 0.4145
H -2.4249 -3.7421 -0.7178
H -2.1358 0.1857 0.4316
H -0.4204 2.2368 0.5240
H 3.0519 0.9165 0.7283
H 2.8850 -0.2084 -1.5430
H 3.9622 1.2049 -1.5840
H 0.9555 1.2941 -2.4067
H 2.3295 1.0984 -3.5436
H 1.7168 3.5059 -3.3911
H 3.3583 3.2058 -2.7310
H 0.7243 3.5576 -1.1469
H 2.1115 4.7003 -1.1962
H 2.0742 3.3055 0.9501
H 3.5520 3.1410 -0.0388
H 5.6051 -1.3900 0.2345
H 7.7185 -2.6986 0.2404
H 7.6385 -5.1565 0.0311
H 6.3101 -7.2255 -0.0770
H 4.1650 -8.3375 -0.1231
H 0.5016 -5.6633 0.1833
H -0.2469 -7.0751 0.7877
H -0.1310 -6.9847 -0.9961
H 2.1980 -4.4237 -0.2053
