55
 
C 0.9010 -0.6430 -0.0020
N -0.3856 -1.0485 0.0963
C -0.8528 -2.4414 0.1094
C -0.1791 -3.1247 1.3183
C -2.3961 -2.5154 0.0449
C -0.3930 -3.1423 -1.1572
C -1.1310 0.0803 0.0533
C -0.2871 1.1559 -0.0646
N 0.9818 0.6974 -0.1066
C 2.2117 1.5053 -0.0993
C 2.2195 2.3647 1.1864
C 3.4610 0.5950 -0.0901
C 2.2457 2.4084 -1.3353
Cu 2.6584 -1.8814 -0.0135
N 4.3750 -3.0911 -0.0247
C 4.8375 -3.8148 -1.0107
C 4.1794 -4.0491 -2.3416
C 4.8465 -4.5349 -3.4876
C 4.1417 -4.7308 -4.6928
C 2.7678 -4.4737 -4.7575
C 2.1024 -4.0298 -3.6176
C 2.8298 -3.8235 -2.4399
N 6.0498 -4.4394 -0.6827
C 6.5214 -3.8663 0.5387
C 5.2762 -3.1510 1.0997
H -0.5385 -2.6395 2.2524
H 0.9701 -3.0081 1.2212
H -0.4429 -4.2029 1.3584
H -2.8766 -2.0075 0.8998
H -2.7603 -3.5616 -0.0316
H -2.7343 -2.0018 -0.8922
H 0.6496 -3.0349 -1.1178
H -0.7303 -2.6519 -2.0942
H -0.6565 -4.2236 -1.1740
H -2.2105 0.1348 0.0892
H -0.5842 2.1958 -0.0984
H 2.1628 1.7151 2.0887
H 1.3463 3.0520 1.2161
H 3.1436 2.9759 1.2539
H 3.4467 -0.0518 0.8178
H 4.3944 1.1888 -0.0392
H 3.5094 0.0414 -1.0409
H 1.3793 3.1027 -1.3304
H 2.1966 1.7898 -2.2563
H 3.1790 3.0097 -1.3465
H 5.9039 -4.7482 -3.4680
H 4.6543 -5.0836 -5.5782
H 2.2186 -4.6257 -5.6808
H 1.0334 -3.8529 -3.6487
H 2.4119 -3.5195 -1.5410
H 6.5944 -5.0579 -1.3007
H 7.2960 -3.1306 0.2277
H 6.9496 -4.6009 1.2506
H 5.5635 -2.1424 1.4596
H 4.7791 -3.7334 1.9066
