78
 
P 1.2750 0.0000 0.0000
N 0.4528 1.5427 -0.2272
C 1.0455 2.5301 0.7412
C 2.5917 2.6768 0.5998
C 0.4709 3.9372 0.5655
C -1.0023 1.4242 -0.2248
C -1.4342 -0.0114 0.0350
C -2.9686 -0.0502 0.0387
C -0.8965 -0.9314 -1.1320
N 0.5910 -0.9479 -1.3463
C 1.0991 -2.3710 -1.2723
C 0.4942 -3.3786 -2.2609
C 2.6237 -2.4873 -1.4078
N 0.6572 -0.3609 1.6188
C 1.2392 -1.6532 2.1403
C 2.7864 -1.6778 2.2218
C 0.6863 -2.1068 3.4947
C -0.8435 -0.4536 1.4480
Cu 3.7350 0.0003 -0.0005
C 5.8850 0.0006 -0.0009
N 6.6208 -0.4156 -0.9746
C 6.1014 -1.0012 -2.1955
C 5.1915 0.0285 -2.8645
C 7.2328 -1.4266 -3.1680
C 8.0316 -0.2709 -0.6613
C 8.0390 0.6401 0.5530
N 6.6945 0.5053 1.0563
C 6.2889 0.8532 2.4097
C 7.0786 -0.0104 3.4107
C 6.5553 2.3348 2.7146
H 0.8408 2.2053 1.7854
H 2.8872 2.9510 -0.4373
H 3.1296 1.7685 0.9085
H 2.9851 3.4527 1.2913
H 0.6917 4.3128 -0.4541
H 0.9337 4.6125 1.3186
H -0.6151 3.9767 0.7498
H -1.3692 1.7722 -1.2173
H -1.4626 2.0595 0.5531
H -3.3579 0.2836 -0.9500
H -3.3696 0.6361 0.8151
H -3.3318 -1.0770 0.2380
H -1.3593 -0.6299 -2.0967
H -1.3005 -1.9347 -0.8878
H 0.7870 -2.8113 -0.3426
H 0.7695 -3.1301 -3.3005
H -0.6021 -3.4857 -2.1652
H 0.9054 -4.3888 -2.0114
H 2.9386 -2.3051 -2.4515
H 2.9579 -3.4927 -1.0672
H 3.1644 -1.7885 -0.7883
H 0.9289 -2.4783 1.5249
H 3.1740 -0.9975 2.9996
H 3.2912 -1.4503 1.2977
H 3.1151 -2.7203 2.4377
H 0.9893 -1.4177 4.3018
H 1.0905 -3.1258 3.7097
H -0.4147 -2.2243 3.4811
H -1.2975 0.1868 2.2355
H -1.2160 -1.4850 1.6060
H 5.5163 -1.9082 -1.9315
H 5.8114 0.9016 -3.1729
H 4.3911 0.3673 -2.1465
H 4.7268 -0.4161 -3.7664
H 7.8346 -0.5482 -3.4917
H 6.8150 -1.9012 -4.0789
H 7.9232 -2.1585 -2.6915
H 8.6455 0.1836 -1.4662
H 8.4208 -1.2813 -0.3981
H 8.1502 1.6971 0.2188
H 8.8584 0.3704 1.2481
H 5.2039 0.6461 2.5333
H 8.1699 0.1954 3.3475
H 6.9184 -1.0888 3.2025
H 6.7674 0.2073 4.4528
H 7.6394 2.5714 2.6295
H 6.2404 2.5681 3.7558
H 5.9881 2.9875 2.0213
