87
 
C 0.9010 -0.6430 -0.0020
N -0.3865 -1.1513 -0.1592
C -0.9080 -2.5476 -0.1412
C -0.2094 -3.5483 0.6002
C 0.9865 -3.2750 1.4345
C -0.6688 -4.8659 0.6998
C -1.8510 -5.2703 0.1182
C -2.2923 -6.7032 0.2862
C -2.6096 -4.3275 -0.5762
C -2.1773 -2.9765 -0.7093
C -3.1270 -2.0742 -1.4537
C -1.1829 -0.0672 -0.0623
C -0.4515 1.0435 0.2166
N 0.8540 0.7396 0.3302
C 1.8367 1.8585 0.5882
C 1.5836 3.0457 1.4039
C 0.3888 3.2835 2.2889
C 2.4623 4.1701 1.3572
C 3.5917 4.1806 0.5411
C 4.3730 5.4558 0.2636
C 3.8994 3.0315 -0.1711
C 3.0175 1.9314 -0.1801
C 3.1731 0.9638 -1.2597
Cu 2.6584 -1.8814 -0.0135
C 4.4159 -3.1199 -0.0250
N 5.5242 -2.9298 0.7789
C 5.7728 -1.9496 1.8373
C 4.5056 -1.4239 2.4931
C 4.8751 -0.4075 3.5778
C 3.6132 0.1261 4.2322
C 6.4035 -3.9248 0.4680
C 5.8751 -4.6843 -0.5179
C 6.5694 -5.7797 -1.0745
C 7.8346 -6.0997 -0.5709
C 8.3858 -5.3360 0.4716
C 7.6762 -4.2339 1.0057
N 4.6485 -4.2209 -0.8405
C 3.9259 -4.8845 -1.9302
C 2.5489 -4.3407 -2.2090
C 2.4488 -2.8821 -2.6525
C 2.9880 -2.5416 -4.0678
H 1.0888 -2.2204 1.6869
H 1.8623 -3.7308 0.9425
H 0.8385 -3.6983 2.4482
H -0.1084 -5.5867 1.2859
H -1.5526 -7.2900 0.8789
H -2.3773 -7.1893 -0.7061
H -3.2608 -6.7585 0.8265
H -3.5576 -4.6528 -0.9980
H -4.0157 -2.6172 -1.8424
H -2.6058 -1.6026 -2.3091
H -3.5855 -1.3399 -0.7738
H -2.2445 -0.0185 -0.0913
H -0.8913 2.0231 0.3271
H -0.3281 2.4547 2.3339
H -0.1355 4.2086 1.9478
H 0.7377 3.4555 3.3291
H 2.2180 5.0827 1.8996
H 4.0117 6.3382 0.8371
H 4.1760 5.7047 -0.8056
H 5.4751 5.3655 0.3641
H 4.7708 3.0471 -0.8155
H 2.9135 1.4069 -2.2343
H 2.1656 0.8885 -1.6634
H 3.3268 -0.0651 -0.9163
H 6.3767 -1.1215 1.4179
H 6.3565 -2.4402 2.6518
H 3.9505 -2.2736 2.9561
H 3.8730 -0.9187 1.7352
H 5.4374 0.4379 3.1216
H 5.5220 -0.8763 4.3545
H 2.9686 0.5999 3.4615
H 3.8765 0.8796 5.0024
H 3.0620 -0.7103 4.7121
H 6.1592 -6.3824 -1.8740
H 8.3817 -6.9409 -0.9869
H 9.3644 -5.6070 0.8527
H 8.1277 -3.6658 1.8058
H 3.8046 -5.9546 -1.6402
H 4.5534 -4.8719 -2.8555
H 2.0132 -4.4439 -1.2513
H 2.0896 -4.9967 -2.9792
H 2.9382 -2.2640 -1.9176
H 1.3787 -2.6221 -2.6049
H 4.0690 -2.7650 -4.1955
H 2.8536 -1.4522 -4.2615
H 2.4319 -3.0692 -4.8731
