84
 
P 0.9172 0.0417 -0.0374
C 0.2112 1.7914 -0.0387
C -1.2962 2.0986 -0.1233
C 0.7789 2.5625 1.1642
C 0.4325 -0.7585 -1.6530
C -1.0937 -0.9170 -1.8822
C 1.0390 -0.0536 -2.8521
C 0.3904 -0.7714 1.5816
C -1.1387 -0.9270 1.7289
C 0.9327 -2.2048 1.7275
Cu 3.3772 0.0417 -0.0374
P 5.8372 0.0417 -0.0374
C 6.5116 -1.7027 -0.4159
C 5.8850 -2.6103 0.6516
C 4.3595 -2.7881 0.4530
C 4.1336 -3.6472 -0.7865
C 4.7408 -2.9506 -2.0114
C 6.2128 -2.4977 -1.7678
C 6.3102 1.1185 -1.5194
C 5.7567 2.5953 -1.6044
C 6.3440 3.5569 -0.5718
C 7.9028 3.5588 -0.5837
C 8.4812 2.1417 -0.5398
C 7.8555 1.2253 -1.6164
C 6.6303 0.5623 1.7854
C 6.6592 2.0881 2.3239
C 5.3247 2.5769 2.9104
C 5.0422 1.7581 4.1642
C 5.1037 0.2444 3.8651
C 6.4128 -0.1599 3.1599
H 0.6609 2.2629 -0.9381
H -1.8787 1.7923 0.7516
H -1.7670 1.7529 -1.0439
H -1.4305 3.2011 -0.1607
H 0.3263 2.2097 2.1145
H 0.5572 3.6488 1.0607
H 1.8832 2.4589 1.2235
H 0.8368 -1.7923 -1.6126
H -1.6123 0.0290 -2.0660
H -1.6087 -1.4538 -1.0721
H -1.2870 -1.5094 -2.8003
H 0.6605 0.9860 -2.9240
H 0.7490 -0.5969 -3.7797
H 2.1429 -0.0603 -2.7662
H 0.7666 -0.1604 2.4243
H -1.5640 -1.6470 1.0048
H -1.6761 0.0113 1.6562
H -1.3940 -1.3318 2.7306
H 0.5713 -2.8691 0.9075
H 0.5702 -2.6564 2.6825
H 2.0281 -2.2101 1.7641
H 7.6153 -1.6502 -0.3218
H 6.0398 -2.1730 1.6016
H 6.3828 -3.6031 0.6805
H 3.8146 -1.8150 0.4005
H 3.9271 -3.3075 1.3240
H 3.0477 -3.8342 -0.9493
H 4.6127 -4.6398 -0.6061
H 4.1237 -2.0705 -2.2663
H 4.6831 -3.6713 -2.8675
H 6.6024 -2.0005 -2.6790
H 6.7818 -3.4592 -1.6889
H 5.9060 0.5942 -2.4075
H 4.6474 2.6225 -1.5293
H 6.0389 3.0287 -2.5889
H 5.8475 3.2311 0.3315
H 5.9946 4.6060 -0.6857
H 8.3098 4.1470 0.2766
H 8.2747 4.0457 -1.5063
H 8.3208 1.7554 0.4377
H 9.5875 2.1564 -0.6104
H 8.2977 0.2138 -1.5498
H 8.1297 1.6636 -2.5967
H 7.6867 0.2871 1.6176
H 7.1318 2.8786 1.7523
H 7.3985 2.1814 3.1563
H 4.5080 2.4940 2.1657
H 5.3991 3.6493 3.2218
H 4.0614 2.0446 4.6021
H 5.8206 2.0247 4.9208
H 4.2543 -0.0525 3.2256
H 5.0528 -0.2785 4.8445
H 6.6123 -1.2287 3.1867
H 7.2386 0.1630 3.8480
