29
 
C 1.0240 -0.6530 -0.0550
N 1.0524 0.6207 -0.0785
C 2.2657 1.3896 -0.1942
C -0.2744 1.1771 0.0812
C -1.1955 -0.0479 -0.0653
N -0.2815 -1.1443 0.1073
C -0.6491 -2.5105 0.3851
Cu 2.7802 -1.8697 -0.2955
N 4.4956 -3.0582 -0.5304
C 4.4132 -4.2407 -1.1934
Cl 2.9064 -4.6810 -1.9695
C 5.5382 -5.0671 -1.2928
C 6.7217 -4.6856 -0.6551
C 6.7769 -3.4754 0.0393
C 5.6473 -2.6536 0.0681
H 3.1517 0.7041 -0.2809
H 2.3777 2.0338 0.7045
H 2.1991 2.0438 -1.0905
H -0.5298 1.9535 -0.6710
H -0.3376 1.5961 1.1100
H -1.5802 -0.1207 -1.1087
H -2.0358 -0.0271 0.6594
H -1.7555 -2.6019 0.4538
H -0.2237 -2.8028 1.3701
H -0.2651 -3.1886 -0.4015
H 5.4943 -5.9976 -1.8440
H 7.5920 -5.3283 -0.6937
H 7.6801 -3.1831 0.5598
H 5.6636 -1.7264 0.6258
