34
 
C 0.9010 -0.6430 -0.0020
N -0.3513 -1.1168 -0.0775
C -0.7456 -2.5173 -0.0528
C -1.1628 -0.0457 -0.0215
C -0.3742 1.0851 0.0621
N 0.9268 0.7072 0.0905
C 2.0968 1.5700 0.0428
C 1.9636 2.9763 -0.0038
C 3.0898 3.8009 -0.1231
C 4.3664 3.2435 -0.1942
C 4.5199 1.8614 -0.1548
C 3.4015 1.0353 -0.0475
Cu 2.6584 -1.8814 -0.0135
N 4.3750 -3.0911 -0.0247
C 4.3541 -4.2376 -0.7547
F 3.2547 -4.5451 -1.4853
C 5.4898 -5.0497 -0.8178
C 6.6175 -4.7025 -0.0709
F 7.7182 -5.4940 -0.0947
C 6.6070 -3.5371 0.7001
C 5.4733 -2.7172 0.6842
F 5.4357 -1.5908 1.4366
H 0.1570 -3.1693 -0.0232
H -1.3759 -2.7613 -0.9276
H -1.3298 -2.7041 0.8795
H -2.2446 -0.0799 -0.0275
H -0.7446 2.0999 0.0833
H 0.9957 3.4522 0.0282
H 2.9722 4.8756 -0.1703
H 5.2372 3.8789 -0.2921
H 5.5078 1.4223 -0.2230
H 3.5945 -0.0023 -0.0688
H 5.4958 -5.9371 -1.4382
H 7.4677 -3.2731 1.3011
