68
 
C -0.2710 -1.1478 0.0568
N 0.7173 -0.2466 -0.4359
C 1.9574 -0.5526 -1.2578
C 0.2962 1.0348 -0.0052
C 0.8580 2.5009 -0.1792
C -0.8693 0.8686 0.7135
C -1.6868 1.9460 1.3881
N -1.2101 -0.4318 0.7474
C -2.3996 -0.9095 1.4596
Cu -0.5102 -3.4159 -0.0189
P -0.8107 -5.8531 -0.0694
C -2.4282 -6.3244 -0.8327
C -2.4278 -5.7890 -2.2708
C -2.7252 -7.7921 -0.8307
C -3.5626 -5.6169 -0.1567
C 0.5944 -6.6926 -0.8804
C 1.8713 -6.4116 -0.1397
C 0.4312 -8.2140 -0.9564
C 0.7776 -6.1640 -2.2675
C -0.9224 -6.4807 1.6776
C -0.7966 -5.6480 2.7930
C -0.6180 -6.1023 4.0656
C -0.7886 -7.4286 4.3581
N -0.6015 -7.9156 5.6941
C -0.8450 -7.0920 6.8737
C -0.0859 -9.2513 5.9242
C -1.1636 -8.2562 3.2840
C -1.0972 -7.8195 1.9650
H 2.0973 -1.6379 -1.4836
H 2.9210 -0.2322 -0.7793
H 1.9715 -0.0494 -2.2621
H 1.7792 2.5595 -0.7645
H 1.0694 3.0357 0.7985
H 0.1266 3.2153 -0.6734
H -1.2720 2.9512 1.2534
H -1.7515 1.7447 2.4789
H -2.7174 1.9412 0.9767
H -2.9577 -0.0668 1.9239
H -2.1311 -1.5855 2.2857
H -3.0962 -1.3965 0.7672
H -1.8072 -6.3210 -2.9109
H -2.1666 -4.7147 -2.3301
H -3.3268 -6.0270 -2.8298
H -2.1117 -8.3254 -1.4620
H -3.6307 -8.0379 -1.3739
H -2.7077 -8.1900 0.1735
H -3.3986 -4.5248 -0.1756
H -3.6437 -5.9778 0.8689
H -4.5076 -5.8498 -0.6884
H 1.8665 -6.7687 0.8778
H 2.0357 -5.3341 -0.0958
H 2.7053 -6.9231 -0.6519
H 0.2017 -8.7566 -0.0766
H 1.2367 -8.7200 -1.4572
H -0.3053 -8.5272 -1.5909
H 0.8478 -5.0700 -2.2717
H 0.0375 -6.4801 -2.9199
H 1.5760 -6.6590 -2.8081
H -0.8134 -4.6208 2.7894
H -0.3639 -5.3655 4.7849
H -1.2106 -6.0900 6.6768
H 0.0769 -6.9321 7.4526
H -1.6230 -7.5477 7.5030
H 0.1161 -9.8076 5.0164
H -0.8109 -9.8450 6.4893
H 0.8848 -9.2168 6.4460
H -1.4881 -9.2445 3.4154
H -1.2235 -8.5162 1.1815
