22
 
C -0.3280 -1.0820 0.0030
N 0.9444 -0.6640 -0.1318
H 1.7937 -1.2579 -0.2539
C 0.8815 0.6803 -0.0983
Cl 2.2637 1.7475 -0.2532
C -0.4352 1.0547 0.0699
Cl -1.0615 2.6877 0.1948
N -1.1898 -0.0560 0.1260
Cu -0.9444 -3.1417 0.0167
N -1.5465 -5.1535 0.0300
C -1.9001 -5.0189 -1.3968
N -0.6787 -6.2100 0.1286
C -1.3449 -7.2928 0.3532
C -2.6957 -7.0046 0.5626
C -2.8074 -5.6272 0.4524
H -2.2243 -0.1171 0.2510
H -0.9871 -4.7071 -1.9522
H -2.6353 -4.1921 -1.5545
H -2.2654 -5.9495 -1.9003
H -0.9001 -8.2787 0.3719
H -3.5019 -7.6976 0.7671
H -3.7147 -5.0405 0.5510
