53
 
C 1.0240 -0.6530 -0.0550
N 1.0447 0.6213 -0.0913
C 2.2475 1.4027 -0.2311
C -0.2789 1.1681 0.0919
C -1.1896 -0.0615 -0.0451
N -0.2770 -1.1645 0.1403
C -0.6476 -2.5262 0.3905
C -2.0107 -2.8897 0.4530
C -2.3916 -4.2056 0.7249
C -1.4222 -5.1830 0.9426
C -0.0677 -4.8433 0.8959
C 0.3240 -3.5242 0.6248
Cu 2.7802 -1.8697 -0.2955
P 4.7896 -3.2619 -0.5706
N 5.8032 -3.2663 -2.0806
C 5.0132 -3.5731 -3.3110
C 6.2674 -1.8744 -2.3587
N 6.0332 -2.4691 0.4660
C 5.6546 -2.5368 1.8910
C 7.3595 -3.1363 0.3531
N 4.2494 -4.9726 -0.3957
C 3.2055 -5.4542 -1.3017
C 5.3363 -5.9612 -0.2776
H 3.1383 0.7283 -0.3421
H 2.3685 2.0471 0.6670
H 2.1560 2.0602 -1.1228
H -0.5568 1.9456 -0.6505
H -0.3249 1.5824 1.1242
H -1.5672 -0.1463 -1.0895
H -2.0332 -0.0142 0.6746
H -2.7924 -2.1599 0.2963
H -3.4424 -4.4656 0.7697
H -1.7237 -6.2017 1.1539
H 0.6786 -5.6061 1.0780
H 1.3750 -3.2999 0.6236
H 4.7369 -4.6188 -3.4216
H 5.6330 -3.4208 -4.2281
H 4.1189 -2.9106 -3.4383
H 6.8047 -1.3913 -1.5290
H 5.4273 -1.1838 -2.6140
H 6.9841 -1.8765 -3.2113
H 4.6867 -2.0371 2.0851
H 6.4195 -2.0088 2.5097
H 5.6184 -3.5885 2.2629
H 7.7946 -3.0932 -0.6603
H 7.3321 -4.1984 0.6382
H 8.1041 -2.6455 1.0147
H 2.3992 -4.7066 -1.4170
H 2.7670 -6.3838 -0.8776
H 3.6098 -5.7966 -2.2647
H 5.9658 -5.7634 0.6055
H 5.9417 -6.0242 -1.2077
H 4.9180 -6.9718 -0.0686
