51
 
C 2.3270 0.0340 0.0000
N 1.5457 1.1394 0.0099
C 2.0529 2.5115 0.0235
C 2.9588 2.7120 -1.1885
C 3.5269 4.1305 -1.2905
C 4.3501 4.2668 -2.5711
C 0.2718 0.6712 0.0101
C 0.3088 -0.7019 0.0158
C -0.8584 -1.4746 0.0255
C -2.0911 -0.8052 0.0137
C -2.1378 0.6043 0.0067
C -0.9480 1.3639 0.0100
N 1.5986 -1.1022 0.0105
C 2.1543 -2.4519 -0.0078
C 1.7448 -3.1820 -1.2951
C 2.2276 -2.4026 -2.5230
C 1.8141 -3.0858 -3.8149
Cu 4.4769 0.0580 0.0014
N 6.5767 0.0815 0.0028
C 7.1920 1.2941 -0.0411
C 8.5831 1.3759 -0.1374
C 9.3321 0.1996 -0.1869
C 8.6848 -1.0374 -0.1251
C 7.2885 -1.0777 -0.0251
H 2.6525 2.6693 0.9464
H 1.2133 3.2389 0.0188
H 2.3436 2.5181 -2.1002
H 3.8162 1.9799 -1.0800
H 4.1727 4.3354 -0.4102
H 2.7055 4.8818 -1.3147
H 5.1760 3.5242 -2.5772
H 4.7828 5.2860 -2.6443
H 3.7059 4.0935 -3.4615
H -0.8388 -2.5538 0.0430
H -3.0107 -1.3789 0.0120
H -3.1013 1.0989 0.0013
H -0.9987 2.4433 0.0086
H 1.8005 -3.0108 0.8851
H 3.2728 -2.3830 0.0320
H 0.6448 -3.2974 -1.3519
H 2.1796 -4.2041 -1.2892
H 3.3342 -2.3138 -2.4865
H 1.7861 -1.3819 -2.5242
H 2.2494 -4.1052 -3.8623
H 2.1851 -2.4889 -4.6740
H 0.7060 -3.1478 -3.8745
H 6.5946 2.1966 -0.0248
H 9.0733 2.3400 -0.1895
H 10.4100 0.2478 -0.2797
H 9.2600 -1.9530 -0.1710
H 6.7726 -2.0280 -0.0035
