49
 
C 2.3270 0.0340 0.0000
N 1.5619 1.1411 -0.0291
C 2.1235 2.4992 -0.0280
C 3.6891 2.4439 -0.1116
C 1.5948 3.3181 -1.2127
C 0.2728 0.6824 -0.0106
C 0.2719 -0.6964 -0.0090
C -0.9176 -1.4451 -0.0126
C -2.1331 -0.7620 -0.0035
C -2.1517 0.6429 0.0071
C -0.9479 1.3833 0.0059
N 1.5362 -1.1604 -0.0036
C 1.8240 -2.6863 -0.0080
C 3.0436 -3.1363 0.7914
C 3.5804 -2.0969 1.4289
C 4.7170 -2.1191 2.0377
C 5.4588 -3.2362 2.2114
C 4.9225 -4.4341 1.7603
C 3.6993 -4.4116 1.0061
Cu 4.4769 0.0580 0.0014
O 6.5267 0.0810 0.0028
C 7.0820 -0.6403 1.0602
C 8.6049 -0.6454 1.0090
C 6.7693 0.1349 2.4134
H 1.8019 3.0023 0.9140
H 4.0241 1.9817 -1.0548
H 4.1408 1.8784 0.7019
H 4.0827 3.4770 -0.0347
H 1.8908 2.8442 -2.1701
H 2.0028 4.3501 -1.1700
H 0.4940 3.4131 -1.1983
H -0.9375 -2.5253 -0.0213
H -3.0587 -1.3273 -0.0008
H -3.1081 1.1488 0.0159
H -1.0038 2.4575 0.0223
H 1.9341 -3.0293 -1.0613
H 0.9843 -3.2592 0.4374
H 3.1091 -1.1995 1.5731
H 4.9315 -1.1936 2.3499
H 6.4004 -3.1130 2.7286
H 5.4902 -5.3211 2.0038
H 3.3301 -5.3608 0.6385
H 6.8122 -1.6870 0.9091
H 9.0006 0.3909 1.1079
H 8.9786 -1.1003 0.0752
H 8.9798 -1.2396 1.8758
H 7.2583 1.1200 2.4590
H 7.0590 -0.4995 3.2853
H 5.7410 0.5092 2.6251
