58
 
N -1.4044 -0.1085 -0.0226
C -0.6475 0.7720 -0.7763
C 0.7418 0.6705 -0.8557
C 1.3809 -0.1539 0.0004
F 2.7162 -0.2721 -0.0745
C 0.6401 -0.8510 0.9392
C -0.7512 -0.9261 0.8305
Cu -3.4708 -0.1943 -0.2538
P -5.9013 -0.3275 -0.5017
C -6.6022 1.3685 -0.7181
C -6.0384 2.0578 -1.9321
C -8.0877 1.3756 -0.7382
C -6.1560 2.2202 0.4631
C -6.3123 -1.2659 -2.0495
C -5.7378 -2.6572 -1.9370
C -7.8057 -1.4299 -2.1969
C -5.7244 -0.6421 -3.2685
C -6.6106 -1.1364 0.9222
C -5.7894 -1.5800 1.9341
C -6.2650 -2.3674 2.9490
C -7.6030 -2.5082 3.1554
N -8.1012 -3.3222 4.2234
C -7.3543 -3.5030 5.4596
C -9.3625 -4.0216 4.0760
C -8.4414 -1.8209 2.2777
C -7.9627 -1.3007 1.0982
H -1.1044 1.5744 -1.3123
H 1.3232 1.2217 -1.5495
H 1.1399 -1.3448 1.7230
H -1.3045 -1.6307 1.3966
H -6.3870 1.6969 -2.7545
H -4.9592 2.0618 -1.9420
H -6.4397 3.0388 -2.0790
H -8.4477 0.9973 -1.5501
H -8.5015 2.3488 -0.8706
H -8.5105 0.8872 0.1072
H -5.0760 2.2608 0.5327
H -6.4800 1.8521 1.3819
H -6.5559 3.2286 0.3882
H -6.1663 -3.1761 -1.0987
H -4.6576 -2.6011 -1.8257
H -5.9775 -3.2438 -2.8207
H -8.2576 -1.8676 -1.3223
H -8.0789 -1.9553 -3.0858
H -8.2540 -0.6021 -2.4324
H -4.6622 -0.5063 -3.1703
H -6.1563 0.1825 -3.5161
H -5.9820 -1.1623 -4.1654
H -4.7697 -1.3264 1.9342
H -5.5833 -2.8221 3.5658
H -6.4372 -2.9671 5.4880
H -7.0874 -4.5443 5.6151
H -7.9275 -3.1446 6.3094
H -9.8227 -3.8397 3.1271
H -10.0691 -3.7008 4.8361
H -9.2280 -5.1000 4.1431
H -9.4557 -1.7096 2.4830
H -8.6481 -1.0358 0.3924
