29
 
N -1.3945 -0.0925 -0.0503
C -0.7620 1.0833 0.3086
C 0.6168 1.2366 0.1741
C 1.3818 0.1500 -0.0311
C 2.8599 0.2998 -0.1859
C 0.7586 -1.0927 -0.0919
C -0.6266 -1.1906 -0.2524
Cu -3.4721 -0.2021 -0.2812
N -5.5561 -0.2887 -0.5099
C -6.3395 0.8453 -0.6608
N -7.7067 0.8125 -0.5433
C -8.3550 -0.3711 -0.5139
O -9.7246 -0.4171 -0.3654
C -10.4852 0.7451 -0.2267
C -7.5810 -1.5301 -0.6542
C -6.1899 -1.4882 -0.5080
H -1.3193 1.9069 0.6693
H 1.0863 2.1684 0.2376
H 3.1534 1.3411 -0.1154
H 3.1620 -0.0751 -1.1603
H 3.3698 -0.2622 0.5786
H 1.3494 -1.9581 -0.0411
H -1.0781 -2.1043 -0.5156
H -5.8735 1.7728 -0.8947
H -11.5388 0.5196 -0.1190
H -10.3563 1.3786 -1.1003
H -10.1615 1.3019 0.6486
H -8.0653 -2.4388 -0.8521
H -5.6344 -2.3778 -0.3850
