52
 
P 0.9222 0.0348 0.0523
O -0.2751 1.1528 0.4910
C 0.2363 1.7765 1.6777
O 0.4499 -0.1816 -1.5706
C 1.0545 -1.3626 -2.0449
O 0.5999 -0.9040 1.4488
C 1.2276 -2.1453 1.3634
Cu 3.3822 0.0348 0.0523
P 5.8422 0.0348 0.0523
N 6.7776 -1.1351 -0.9209
C 6.3114 -1.1229 -2.3098
C 8.2238 -1.3706 -0.8537
C 8.7637 -1.2425 0.5200
N 8.9573 0.1402 1.0601
C 8.5113 1.5063 0.6186
C 7.8446 1.7133 -0.7507
N 6.3684 1.4743 -0.8164
C 5.5921 2.6021 -0.2913
N 6.2846 -0.6167 1.7361
C 5.3095 -1.5362 2.3338
C 7.2176 0.0059 2.7727
C 8.7511 0.0290 2.4834
H -0.0882 2.8308 1.7614
H 1.3594 1.8370 1.7551
H -0.1223 1.2246 2.5741
H 0.5973 -1.6300 -3.0195
H 0.8577 -2.2474 -1.4100
H 2.1443 -1.2125 -2.1971
H 1.1034 -2.6393 2.3498
H 2.3153 -2.0377 1.1737
H 0.7097 -2.8038 0.6430
H 5.2016 -1.0735 -2.3520
H 6.6203 -2.0562 -2.8262
H 6.7358 -0.2489 -2.8482
H 8.8341 -0.8264 -1.5912
H 8.3517 -2.4498 -1.1095
H 9.7354 -1.7750 0.5938
H 8.1195 -1.9002 1.1541
H 9.4287 2.1320 0.6569
H 7.8588 2.0166 1.3572
H 8.4048 1.1981 -1.5421
H 8.0200 2.7837 -1.0005
H 5.8830 3.5456 -0.8008
H 5.7298 2.7218 0.8049
H 4.5105 2.4262 -0.4929
H 4.2742 -1.2212 2.1195
H 5.3821 -1.5656 3.4468
H 5.5241 -2.5656 1.9866
H 6.8707 1.0177 3.0386
H 7.2249 -0.5776 3.7226
H 9.2947 -0.8792 2.8578
H 9.2649 0.8516 3.0359
