49
 
N -1.4178 -0.2930 -0.0335
C -0.6238 0.6952 -0.5499
C 0.7796 0.5619 -0.6002
C 1.6598 1.5554 -1.3048
C 1.3673 -0.5334 0.0104
C 0.5681 -1.4622 0.6700
C -0.8298 -1.3633 0.5901
Cu -3.4577 -0.2369 -0.2379
P -5.9076 -0.2090 -0.4626
C -6.6835 1.3551 -0.7164
C -7.4325 1.7065 -1.8259
C -7.7928 3.0436 -2.0081
C -7.5519 3.9833 -1.0115
C -6.9453 3.5933 0.1778
C -6.4306 2.3040 0.2894
C -6.2503 -1.2441 -2.0035
C -7.0256 -2.4438 -1.9906
C -7.0003 -3.3506 -3.0475
C -6.4026 -2.9982 -4.2330
C -5.8639 -1.7211 -4.3695
C -5.7209 -0.8850 -3.2460
C -6.5981 -1.0652 0.9849
C -5.7612 -1.5650 1.9758
C -6.2936 -2.2343 3.0669
C -7.6548 -2.4892 3.1349
C -8.4866 -1.9655 2.1549
O -9.6873 -2.1632 2.2189
N -7.9513 -1.2159 1.1298
H -1.0628 1.6013 -0.9320
H 1.0571 2.3798 -1.7267
H 2.1829 1.0459 -2.1471
H 2.4324 1.9706 -0.6239
H 2.4446 -0.6502 -0.0236
H 1.0381 -2.2731 1.1970
H -1.4420 -2.1596 0.9814
H -7.6901 0.9696 -2.5562
H -8.2703 3.3618 -2.9161
H -7.8539 5.0064 -1.1665
H -6.8508 4.2987 0.9883
H -5.8453 2.0397 1.1677
H -7.6326 -2.7678 -1.1930
H -7.4515 -4.3329 -2.9482
H -6.3967 -3.7111 -5.0432
H -5.5129 -1.4094 -5.3355
H -5.1941 0.0438 -3.3419
H -4.7045 -1.4329 1.9332
H -5.6384 -2.5573 3.8558
H -8.0632 -3.0613 3.9531
H -8.6014 -0.7533 0.4589
