31
 
N -1.3941 0.0907 0.0509
C -0.6658 -0.9820 0.4392
C 0.6253 -0.8447 0.9370
F 1.2986 -1.8778 1.4939
C 1.2403 0.3651 0.8329
C 0.5705 1.4245 0.2412
C -0.7956 1.3188 -0.0307
Cu -3.4138 -0.1164 -0.2068
N -5.5186 -0.2501 -0.4736
C -6.1664 -1.4690 -0.6080
N -5.4317 -2.7151 -0.6124
C -5.9104 -3.8513 -1.3506
C -4.2196 -2.9002 0.1503
C -7.5772 -1.4763 -0.7970
C -8.2613 -0.3222 -1.0927
C -7.6220 0.8658 -0.9633
C -6.2883 0.8861 -0.5451
H -1.0844 -1.9524 0.3881
H 2.2400 0.4600 1.1951
H 1.1003 2.3129 0.0285
H -1.3706 2.2044 -0.2574
H -6.8665 -3.6529 -1.5376
H -6.1300 -4.7224 -0.7334
H -5.2282 -4.1410 -2.1631
H -3.9480 -2.0348 0.7164
H -3.3832 -3.1307 -0.5106
H -4.3324 -3.7036 0.8944
H -8.1721 -2.3460 -0.7484
H -9.2905 -0.3283 -1.3954
H -8.1772 1.7611 -1.1631
H -5.8820 1.8218 -0.2647
