20
 
N -1.3900 -0.1120 -0.0540
C -0.7969 1.1117 -0.0613
C 0.5969 1.2171 -0.0241
Cl 1.3708 2.7898 -0.0941
C 1.3662 0.0528 0.0425
C 0.7364 -1.1938 0.0711
C -0.6594 -1.2571 0.0111
Cu -3.4756 -0.2017 -0.2821
O -5.5116 -0.2893 -0.5047
C -6.2414 -1.3749 -0.5329
N -7.5479 -1.0683 -0.6760
C -7.5720 0.2805 -0.7453
C -6.2846 0.7550 -0.6296
H -1.4109 1.9992 -0.1431
H 2.4472 0.1131 0.0631
H 1.3250 -2.1006 0.1219
H -1.1617 -2.2152 0.0115
H -5.8566 -2.3795 -0.4232
H -8.4658 0.8765 -0.8737
H -5.9504 1.7839 -0.6551
