23
 
N -1.3892 -0.1091 -0.0580
C -0.5819 -1.2273 -0.2810
C 0.7521 -1.2463 0.1498
Cl 1.6771 -2.7539 0.2198
C 1.3204 -0.1057 0.5120
C 0.5984 1.0820 0.4452
C -0.7992 1.0470 0.3047
Cu -3.4743 -0.2044 -0.2832
N -5.5587 -0.2884 -0.5079
C -6.3213 0.8756 -0.6704
C -7.7125 0.8452 -0.5266
F -8.4213 1.9670 -0.4096
C -8.3312 -0.3228 -0.5038
C -7.5962 -1.4959 -0.6414
C -6.1986 -1.4727 -0.4942
H -0.9693 -2.0732 -0.7592
H 2.3072 -0.1136 0.8355
H 1.0980 1.9937 0.5145
H -1.3742 1.9023 0.4703
H -5.8560 1.7854 -0.9014
H -9.3633 -0.3486 -0.3903
H -8.0881 -2.3920 -0.8434
H -5.6598 -2.3572 -0.3704
