33
 
N -0.6590 -1.2280 -0.0510
C -1.4157 -0.1083 0.0488
O -2.7609 -0.2090 -0.0060
C -3.4082 -1.4295 -0.0476
C -0.7875 1.1474 0.0911
C 0.6116 1.2158 0.0640
C 1.3623 0.0430 -0.0211
C 0.6983 -1.1797 -0.1027
Cu -1.5756 -3.1044 -0.2726
N -2.4923 -4.9807 -0.4941
C -2.0730 -5.8073 -1.4834
C -1.2164 -5.2300 -2.5651
C -2.6027 -7.0995 -1.5895
C -3.4812 -7.5553 -0.6061
C -3.8854 -6.6959 0.4143
C -3.4232 -5.3719 0.4251
C -3.7813 -4.4709 1.5641
H -4.4972 -1.2420 -0.1445
H -3.1718 -1.9656 0.8708
H -3.1089 -2.0407 -0.9008
H -1.3669 2.0608 0.1201
H 1.1167 2.1732 0.0938
H 2.4448 0.0788 -0.0386
H 1.2606 -2.1015 -0.1794
H -0.9295 -4.1841 -2.3137
H -1.8262 -5.1788 -3.5008
H -0.3182 -5.8430 -2.7476
H -2.3373 -7.7438 -2.4180
H -3.8560 -8.5698 -0.6362
H -4.5377 -7.0636 1.1977
H -4.3922 -4.9888 2.3327
H -4.3869 -3.6387 1.1797
H -2.8542 -4.1033 2.0644
