33
 
N -1.3863 -0.0910 -0.0461
C -0.7827 0.9733 0.6104
C 0.6015 1.2063 0.4988
O 1.1726 2.4124 0.9007
C 0.3705 3.4381 1.4337
C 1.3590 0.2353 0.0003
C 0.7868 -0.9735 -0.3868
C -0.6039 -1.0674 -0.5566
Cu -3.4714 -0.2033 -0.2793
N -5.5481 -0.2745 -0.5016
C -6.3056 0.6581 0.0988
C -5.6665 1.7538 0.9145
C -7.6791 0.5987 -0.0847
C -8.1449 -0.0933 -1.2121
C -7.4244 -1.2038 -1.6060
C -6.1376 -1.2847 -1.2411
C -5.3298 -2.4878 -1.6481
H -1.3571 1.6357 1.1796
H 0.9690 4.2944 1.6871
H -0.1280 3.0832 2.3228
H -0.3756 3.7323 0.7115
H 2.3809 0.3939 -0.0869
H 1.3966 -1.7988 -0.5655
H -1.0291 -1.8864 -1.0452
H -4.5963 1.6315 0.9224
H -6.0364 1.7168 1.9211
H -5.9046 2.7169 0.4860
H -8.3320 1.0593 0.5873
H -9.0072 0.2050 -1.7244
H -7.8545 -1.9616 -2.1736
H -5.9360 -3.1726 -2.2177
H -4.9668 -2.9932 -0.7672
H -4.4934 -2.1750 -2.2449
