35
 
N 0.9221 -0.0588 0.0217
C 0.4622 -0.6860 1.2681
C 0.4622 1.3342 -0.0585
C 0.4688 -0.8263 -1.1455
Cu 3.0221 -0.0588 0.0217
N 5.1221 -0.0588 0.0217
C 5.8594 -1.1033 -0.0402
C 5.3291 -2.4867 -0.1539
C 6.1266 -3.5015 -0.7166
C 5.6128 -4.7883 -0.9006
C 4.3083 -5.0854 -0.5034
C 3.5170 -4.0971 0.0847
C 4.0195 -2.8033 0.2528
N 7.2284 -0.7738 -0.0640
C 7.3308 0.6487 -0.2324
C 5.9119 1.1421 0.0884
H -0.6499 -0.7090 1.3172
H 0.8505 -0.1249 2.1450
H 0.8458 -1.7263 1.3399
H -0.6498 1.3886 -0.0602
H 0.8468 1.8133 -0.9842
H 0.8506 1.9157 0.8051
H -0.6432 -0.8585 -1.1949
H 0.8595 -1.8652 -1.0962
H 0.8585 -0.3687 -2.0798
H 7.1344 -3.2999 -1.0524
H 6.2242 -5.5529 -1.3625
H 3.9110 -6.0811 -0.6522
H 2.5093 -4.3311 0.4030
H 3.3845 -2.0646 0.7126
H 8.0124 -1.4347 -0.1537
H 7.5609 0.8066 -1.3094
H 8.0992 1.1372 0.4020
H 5.5914 1.9157 -0.6405
H 5.8333 1.5270 1.1285
