36
 
N 1.0245 0.0818 -0.0520
C 0.5657 1.4350 0.2895
C 0.5645 -0.2981 -1.3946
C 0.5702 -0.8915 0.9497
Cu 3.1245 0.0818 -0.0520
N 5.2245 0.0818 -0.0520
C 5.8492 -1.1274 -0.0853
C 7.2429 -1.2071 -0.0997
C 7.9931 -0.0346 -0.0940
C 7.3424 1.2026 -0.0774
C 8.0720 2.3888 -0.1030
C 7.4138 3.6144 -0.0930
C 6.0041 3.6855 -0.0389
C 5.2789 4.9934 -0.0034
O 4.0591 4.9934 0.0771
C 5.9619 6.3373 -0.0496
C 5.2697 2.4770 -0.0157
C 5.9311 1.2443 -0.0453
H -0.5464 1.4886 0.3020
H 0.9545 2.1689 -0.4487
H 0.9509 1.7308 1.2888
H -0.5476 -0.3119 -1.4470
H 0.9492 -1.3055 -1.6619
H 0.9523 0.4191 -2.1495
H -0.5417 -0.9321 0.9917
H 0.9600 -0.6186 1.9535
H 0.9601 -1.9027 0.7056
H 5.2591 -2.0336 -0.1036
H 7.7389 -2.1686 -0.1230
H 9.0752 -0.0916 -0.1098
H 9.1547 2.3705 -0.1392
H 8.0427 4.4850 -0.1243
H 7.0586 6.3003 -0.1440
H 5.7330 6.8937 0.8822
H 5.5841 6.9101 -0.9212
H 4.1847 2.4833 0.0211
