27
 
N -1.3900 -0.1120 -0.0540
C -0.8112 1.0864 0.1992
C 0.5765 1.1968 0.2113
C 1.3704 0.0491 0.0164
O 2.7272 0.1043 0.0104
C 3.4639 1.2704 0.0807
C 0.7380 -1.1843 -0.1915
C -0.6564 -1.2381 -0.2491
Cu -3.4756 -0.2017 -0.2821
O -5.5116 -0.2893 -0.5047
C -5.8182 -1.6379 -0.5051
C -7.3263 -1.7909 -0.6912
C -4.9555 -2.3737 -1.5031
H -1.4273 1.9677 0.3159
H 1.0157 2.1733 0.3542
H 4.5452 1.0300 0.0822
H 3.2229 1.8198 1.0153
H 3.2417 1.9127 -0.8002
H 1.3161 -2.0896 -0.3347
H -1.1627 -2.1758 -0.4406
H -5.5772 -2.0247 0.5099
H -7.6440 -1.4333 -1.6916
H -7.8465 -1.1724 0.0779
H -7.6369 -2.8454 -0.5441
H -5.1742 -2.0143 -2.5307
H -5.1703 -3.4627 -1.4438
H -3.8866 -2.1774 -1.2256
