89
 
C 1.0240 -0.6530 -0.0550
N 1.0045 0.7083 -0.1659
C 2.1460 1.7566 -0.3261
C 2.1686 3.1200 -0.9633
C 1.1286 3.7981 -1.8063
C 1.2713 3.4532 -3.2982
C -0.1552 3.3752 -1.3344
C 3.2820 4.0247 -0.8527
C 4.4034 3.7375 -0.1537
C 4.4705 2.5264 0.3705
C 3.4172 1.5506 0.2472
C 3.8220 0.3250 0.7988
C 5.0224 -0.0072 -0.2317
C 3.8300 0.6381 2.3203
C -0.4088 1.0396 0.2089
C -1.1494 -0.1463 -0.1780
N -0.2874 -1.1965 0.1814
C -0.7382 -2.5256 0.5238
C -1.9606 -3.0951 -0.0696
C -2.9268 -2.3607 -1.0520
C -3.0522 -2.9760 -2.4235
C -4.3037 -1.8961 -0.5237
C -2.2733 -4.4326 0.2081
C -1.4726 -5.2071 1.0322
C -0.3921 -4.6491 1.6903
C -0.0169 -3.3067 1.4999
C 1.1035 -2.7669 2.4263
C 0.7164 -2.8983 3.9217
C 2.4052 -3.5283 2.2308
Cu 2.7802 -1.8697 -0.2955
N 4.4956 -3.0582 -0.5304
C 5.7407 -2.9395 -0.0247
C 6.4109 -1.9569 0.9067
C 5.8008 -1.4732 2.0579
C 6.3972 -0.4211 2.8030
C 7.5746 0.1759 2.3866
C 8.2380 -0.3309 1.2790
C 7.6840 -1.4052 0.5541
N 6.6367 -3.8961 -0.5171
C 5.8558 -4.9939 -0.9008
C 4.5110 -4.3199 -1.2759
H 1.1299 4.8996 -1.6324
H 1.3351 2.3478 -3.4406
H 2.1677 3.9229 -3.7408
H 0.3554 3.8035 -3.8214
H -0.1307 2.3446 -1.7451
H -1.0402 3.8418 -1.7697
H -0.1531 3.5217 -0.2159
H 3.2987 5.0052 -1.3044
H 5.2503 4.4097 -0.0334
H 5.4213 2.3103 0.8655
H 3.1388 -0.4430 0.8786
H 5.5637 0.7938 -0.8028
H 4.8580 -0.6619 -1.1208
H 5.9662 0.2261 0.2326
H 4.6933 1.2377 2.5078
H 3.7289 -0.2364 3.0067
H 3.0643 1.3629 2.6781
H -1.1674 1.6836 -0.2617
H -0.5074 1.2454 1.2849
H -1.1474 -0.0900 -1.3116
H -2.1649 -0.1670 0.2855
H -2.5129 -1.4720 -1.3513
H -3.6061 -3.9284 -2.3786
H -2.0338 -3.0992 -2.8499
H -3.6064 -2.2520 -3.0695
H -5.0591 -2.7047 -0.5196
H -4.6878 -1.1021 -1.2151
H -4.2361 -1.3947 0.4665
H -3.1348 -4.8992 -0.2484
H -1.7093 -6.2501 1.1932
H 0.1491 -5.2890 2.3729
H 1.3058 -1.6897 2.2564
H 0.4714 -3.9476 4.1943
H -0.1487 -2.2539 4.1776
H 1.5683 -2.5965 4.5745
H 2.2665 -4.6078 2.4328
H 3.1891 -3.1748 2.9308
H 2.7439 -3.3651 1.2064
H 4.8327 -1.8732 2.2930
H 5.9211 0.0284 3.6666
H 7.9492 1.0461 2.9186
H 9.1542 0.1504 0.9639
H 8.1990 -1.7137 -0.3429
H 7.6231 -3.9622 -0.2160
H 5.7768 -5.5916 0.0444
H 6.3406 -5.6188 -1.6750
H 3.7262 -5.0253 -0.9223
H 4.4614 -4.1373 -2.3621
