87
 
C 0.9010 -0.6430 -0.0020
N -0.3524 -1.1250 -0.2299
C -0.9460 -2.4536 -0.3167
C -0.5515 -3.4959 0.6335
C 0.5565 -3.5573 1.7798
C 1.8825 -2.7958 1.9179
C -0.1185 -3.2314 3.0689
C -1.4049 -4.6268 0.7114
C -2.5359 -4.7949 -0.0606
C -2.8860 -3.8582 -0.9895
C -2.1310 -2.6908 -1.1853
C -2.7272 -1.7708 -2.3032
C -2.8742 -2.4749 -3.6816
C -4.1351 -1.2798 -1.9014
C -1.1100 -0.0281 -0.2943
C -0.3728 1.0834 -0.0852
N 0.9426 0.7860 0.0621
C 2.0591 1.8635 0.1786
C 1.8999 3.2713 0.5994
C 0.6226 4.0237 0.8995
C 0.6116 4.6831 2.2755
C 0.4185 5.0628 -0.2127
C 3.0354 4.1483 0.7185
C 4.3152 3.7535 0.5317
C 4.5135 2.5216 0.1025
C 3.4442 1.6403 -0.1900
C 3.9310 0.4700 -0.8550
C 5.0562 0.6936 -1.9849
C 4.4813 -0.2049 0.3266
Cu 2.6584 -1.8814 -0.0135
N 4.3750 -3.0911 -0.0247
C 4.4606 -4.3879 -0.3120
C 3.3781 -5.3384 -0.7586
C 3.6481 -6.6258 -1.3368
C 2.5925 -7.4552 -1.7764
C 1.2803 -7.0592 -1.5751
C 1.0327 -5.8387 -1.0027
C 2.0553 -4.9706 -0.6535
N 5.7839 -4.8948 -0.2344
C 6.6801 -3.8122 -0.1780
C 5.7828 -2.6982 0.2964
H 0.9173 -4.6165 1.8291
H 1.7768 -1.7029 1.9084
H 2.6432 -3.2975 1.3556
H 2.4509 -2.9611 2.8487
H -0.5360 -2.2104 2.9419
H 0.6047 -3.2382 3.9166
H -0.8618 -4.0142 3.2626
H -1.1930 -5.4273 1.4033
H -3.1628 -5.6697 0.0621
H -3.7974 -4.0564 -1.5429
H -2.0845 -0.8915 -2.4994
H -3.4953 -3.3963 -3.6314
H -1.8884 -2.7341 -4.1135
H -3.3938 -1.8012 -4.4042
H -4.8512 -2.1224 -1.8132
H -4.5601 -0.5835 -2.6578
H -4.0973 -0.7582 -0.9308
H -2.1636 0.0106 -0.4648
H -0.9038 1.9922 -0.1260
H -0.2420 3.4122 0.9382
H 1.4519 5.3862 2.4202
H 0.6489 3.9005 3.0605
H -0.3259 5.2663 2.3721
H 1.2210 5.8301 -0.1989
H -0.5447 5.5901 -0.0896
H 0.4258 4.5482 -1.1999
H 2.9708 5.1860 0.9792
H 5.1771 4.3981 0.6581
H 5.5577 2.2666 -0.0275
H 3.0608 -0.0373 -1.3589
H 5.8000 1.5064 -1.8461
H 4.6232 0.9409 -2.9700
H 5.7447 -0.1778 -2.0864
H 5.4959 0.0655 0.6316
H 4.3975 -1.0128 -0.2652
H 3.7866 -0.3503 1.2170
H 4.6486 -6.9989 -1.5066
H 2.7653 -8.3997 -2.2786
H 0.4284 -7.6543 -1.8819
H 0.0260 -5.5719 -0.8821
H 1.8040 -4.0124 -0.3166
H 6.0950 -5.8479 -0.4607
H 7.0125 -3.6348 -1.2309
H 7.5658 -3.9517 0.4764
H 6.2378 -1.8376 -0.2295
H 5.8574 -2.5706 1.4019
