96
 
P 1.0561 0.0083 0.0824
C 0.1787 0.0644 1.7355
C 0.5511 -1.0628 2.7234
C 0.2137 -0.4924 4.0767
C 0.7852 0.8924 4.0003
C 0.6345 1.3014 2.5397
C 0.4648 1.5552 -0.7672
C 0.8374 2.8632 -0.0974
C 0.6242 3.9163 -1.1702
C 1.0987 3.2693 -2.4482
C 0.9967 1.6961 -2.1882
C 0.6208 -1.6215 -0.6851
C 1.0158 -2.8448 0.1057
C 0.3147 -3.9649 -0.6043
C -1.0743 -3.3808 -0.8316
C -0.8798 -1.8493 -0.9031
Cu 3.5161 0.0083 0.0824
P 5.9761 0.0083 0.0824
C 6.5793 -1.6797 -0.6455
C 5.9619 -2.7522 0.2614
C 4.4369 -2.8415 0.0490
C 4.0452 -3.3140 -1.3642
C 4.6903 -2.4209 -2.4030
C 6.1934 -2.2220 -2.1060
C 6.4318 1.3587 -1.1515
C 6.0281 1.2467 -2.6541
C 4.5521 1.3674 -2.8139
C 4.1347 2.6444 -2.1671
C 4.4196 2.7897 -0.7122
C 5.9030 2.7133 -0.6034
C 6.7917 0.3910 1.9172
C 6.7063 1.8254 2.6351
C 5.3020 2.1560 3.2140
C 4.9602 1.1386 4.3086
C 5.1157 -0.2923 3.7548
C 6.5286 -0.5265 3.1578
H -0.9260 0.0806 1.6496
H 1.6479 -1.2825 2.6758
H -0.0754 -1.9670 2.6491
H 0.6163 -1.0910 4.9259
H -0.8903 -0.4283 4.1509
H 1.8668 0.8035 4.2149
H 0.3386 1.6116 4.7175
H 1.6377 1.6834 2.2309
H -0.1539 2.0640 2.4631
H -0.6422 1.5467 -0.8749
H 1.8910 2.8128 0.2285
H 0.1954 3.1316 0.7510
H 1.1446 4.8664 -0.8748
H -0.4455 4.0936 -1.3273
H 2.0378 3.8531 -2.4991
H 0.8495 3.5911 -3.4696
H 1.8819 1.0283 -2.2689
H 0.3832 1.1835 -2.9487
H 1.1052 -1.6846 -1.6897
H 0.6363 -2.8660 1.0908
H 2.0560 -2.9665 0.2472
H 0.3223 -4.9126 -0.0198
H 0.8098 -4.1289 -1.5822
H -1.6861 -3.5850 0.0775
H -1.5665 -3.8423 -1.7112
H -1.4470 -1.4209 -0.0503
H -1.2553 -1.3884 -1.8421
H 7.6838 -1.7015 -0.5934
H 6.2016 -2.4826 1.2839
H 6.3821 -3.7635 0.0892
H 3.9984 -1.8767 0.1628
H 3.9972 -3.4920 0.8241
H 2.9611 -3.2669 -1.5906
H 4.3266 -4.3780 -1.4691
H 4.1773 -1.4607 -2.4033
H 4.4956 -2.8760 -3.4055
H 6.6553 -1.6683 -2.9305
H 6.6152 -3.2528 -2.2054
H 7.5319 1.4155 -1.1446
H 6.3720 0.3396 -3.1501
H 6.4676 2.1017 -3.2195
H 4.0610 0.5426 -2.2821
H 4.2093 1.3797 -3.8804
H 3.1864 2.4436 -2.0986
H 4.3704 3.5652 -2.7508
H 3.9448 2.0114 -0.1002
H 3.9913 3.7554 -0.3484
H 6.1151 2.8361 0.4393
H 6.3230 3.5760 -1.1636
H 7.8824 0.2973 1.7097
H 7.2042 2.6444 2.0887
H 7.3684 1.8464 3.5439
H 4.5166 2.1239 2.4341
H 5.2818 3.1742 3.6739
H 3.9307 1.3085 4.6863
H 5.6276 1.2913 5.1918
H 4.3551 -0.4429 2.9664
H 4.9336 -0.9990 4.5921
H 6.7979 -1.5706 2.9834
H 7.2547 -0.2698 3.9804
