28
 
N -0.3280 -1.0820 0.0030
C -1.1012 0.0150 -0.0087
O -0.3652 1.1066 -0.0148
C 0.8978 0.7318 -0.0045
C 0.9376 -0.6446 0.0048
Cu -0.9301 -3.0938 0.0163
N -1.5321 -5.1056 0.0297
C -0.7631 -6.2021 0.0149
N -1.5221 -7.3234 0.0336
C -1.0691 -8.6948 -0.0205
C 0.3038 -9.0008 -0.1237
C 0.7295 -10.3261 -0.2385
C -0.2027 -11.3643 -0.2463
C -1.5626 -11.0805 -0.1258
C -1.9951 -9.7590 -0.0122
C -2.8057 -6.8907 0.0751
C -2.8056 -5.5180 0.0669
H -2.1824 0.0015 -0.0193
H 1.7475 1.4015 -0.0023
H 1.8136 -1.2795 0.0181
H 0.3160 -6.1640 -0.0177
H 1.0563 -8.2265 -0.1326
H 1.7848 -10.5460 -0.3317
H 0.1278 -12.3887 -0.3477
H -2.2879 -11.8834 -0.1303
H -3.0571 -9.5849 0.0685
H -3.6924 -7.5063 0.0982
H -3.6669 -4.8639 0.0874
