34
 
N 1.0240 -0.6530 -0.0550
C 1.0076 0.6238 -0.0460
C 2.2191 1.4569 -0.2328
C 2.0949 2.7718 -0.7297
C 3.2295 3.5498 -0.9720
C 4.4970 3.0387 -0.6944
C 4.6329 1.7469 -0.1751
C 3.5047 0.9456 0.0451
N -0.3029 1.1281 0.0714
C -1.2093 0.0225 -0.0740
C -0.2976 -1.2014 0.0972
Cu 2.7394 -1.8414 -0.2899
N 4.4547 -3.0299 -0.5248
C 3.6170 -4.2227 -0.3730
N 5.4280 -3.1861 0.4314
C 6.4697 -3.7348 -0.0967
C 6.3578 -3.7342 -1.4824
C 5.1323 -3.1534 -1.7511
H 1.1275 3.1959 -0.9664
H 3.1264 4.5484 -1.3812
H 5.3735 3.6470 -0.8805
H 5.6187 1.3671 0.0553
H 3.6505 -0.0322 0.4659
H -0.5786 2.1198 0.0566
H -1.5885 0.0783 -1.1185
H -2.0565 0.0180 0.6430
H -0.5365 -1.9821 -0.6548
H -0.3594 -1.6185 1.1263
H 3.0599 -4.1228 0.5893
H 4.1820 -5.1839 -0.3359
H 2.8311 -4.2653 -1.1546
H 7.3077 -4.1173 0.4722
H 7.0877 -4.0693 -2.2077
H 4.7150 -2.9440 -2.7270
