92
 
P 1.0720 0.0627 0.0297
C 0.6545 0.4193 -1.9161
C -0.7881 0.4352 -2.5199
C -1.5543 1.6399 -1.9846
C -0.8946 2.9680 -2.4019
C 0.6279 2.9813 -2.1560
C 1.2927 1.7046 -2.5944
C 0.4452 -1.7099 0.3168
C 1.1792 -2.7156 -0.5574
C 2.6542 -2.7240 -0.1573
C 2.8575 -3.0702 1.3336
C 1.9579 -2.2611 2.2902
C 0.5195 -2.2635 1.7825
C 0.1975 1.3630 1.2431
C 0.4791 1.1523 2.7585
C 1.9325 1.5164 3.1043
C 2.3183 2.9383 2.6658
C 1.8615 3.2515 1.2386
C 0.3703 2.9127 1.1268
Cu 3.5320 0.0627 0.0297
C 5.6820 0.0627 0.0297
N 6.4569 -0.5295 0.9770
C 5.9328 -1.2501 2.1281
C 6.4135 -0.6950 3.4577
C 5.9836 0.7547 3.6627
C 6.4885 1.2351 5.0141
C 7.7477 -0.3106 0.5980
C 7.7435 0.4215 -0.5540
C 8.9244 0.8343 -1.1872
C 10.1451 0.4731 -0.6063
C 10.1671 -0.2964 0.5722
C 8.9637 -0.7030 1.1891
N 6.4708 0.6366 -0.9315
C 6.0610 1.3716 -2.1202
C 4.8608 2.2148 -1.7797
C 5.0823 3.1188 -0.5536
C 6.2220 4.0918 -0.7764
H 1.1812 -0.3969 -2.4530
H -1.3447 -0.5075 -2.3840
H -0.7297 0.5579 -3.6425
H -1.5568 1.5390 -0.8958
H -2.6056 1.6381 -2.3465
H -1.3910 3.8010 -1.8546
H -1.0642 3.1361 -3.4889
H 0.9382 2.9575 -1.1590
H 1.0773 3.9150 -2.5560
H 2.3466 1.7987 -2.4009
H 1.2177 1.6854 -3.7070
H -0.6394 -1.7161 0.0673
H 1.0329 -2.4322 -1.6135
H 0.7549 -3.7338 -0.4168
H 3.0062 -1.7517 -0.3573
H 3.2697 -3.3618 -0.8097
H 3.9122 -2.9293 1.6064
H 2.6443 -4.1421 1.4678
H 2.2807 -1.2192 2.3488
H 2.0256 -2.6715 3.3259
H -0.1574 -1.7407 2.4801
H 0.1453 -3.3139 1.8116
H -0.8897 1.1734 1.1338
H 0.2257 0.1526 3.1108
H -0.2053 1.8069 3.3583
H 2.5904 0.8194 2.5737
H 2.0925 1.4270 4.2025
H 3.4185 3.0714 2.7563
H 1.8216 3.6712 3.3354
H 2.4268 2.6479 0.4984
H 2.0446 4.3314 1.0412
H -0.1986 3.3723 0.3105
H -0.1688 3.4580 1.9367
H 6.2259 -2.3188 2.0504
H 4.8327 -1.1402 2.1325
H 7.5120 -0.7741 3.5345
H 5.9689 -1.3219 4.2610
H 4.8744 0.8278 3.6316
H 6.4055 1.3982 2.8600
H 6.0638 0.6017 5.8229
H 6.1858 2.2879 5.1771
H 7.5973 1.1639 5.0450
H 8.9233 1.4175 -2.0969
H 11.0721 0.7851 -1.0735
H 11.1224 -0.5725 1.0009
H 9.0172 -1.2972 2.0861
H 5.8419 0.6656 -2.9490
H 6.8728 2.0295 -2.4869
H 4.0901 1.4788 -1.5293
H 4.5631 2.8067 -2.6715
H 5.2987 2.5240 0.3599
H 4.1598 3.6907 -0.3573
H 7.1787 3.5489 -0.9208
H 6.3450 4.7371 0.1139
H 5.9848 4.7046 -1.6690
