63
 
P 1.0675 -0.0538 -0.0505
C 0.2920 -1.1325 1.1796
C -1.0853 -1.1747 1.3702
C -1.6368 -2.0376 2.3239
C -0.8174 -2.8781 3.0861
C 0.5641 -2.8638 2.8935
C 1.1223 -1.9926 1.9466
C 0.4345 1.4850 0.6370
C 0.8661 2.0641 1.8310
C 0.2680 3.2560 2.2769
C -0.7607 3.8603 1.5398
C -1.1800 3.2940 0.3383
C -0.5786 2.1206 -0.1153
C 0.6256 -0.6238 -1.7066
C -0.1599 -1.7642 -1.9266
C -0.4900 -2.1308 -3.2351
C -0.0424 -1.3668 -4.3133
C 0.7201 -0.2245 -4.0673
O 1.1054 0.4624 -4.9980
N 1.0326 0.1250 -2.7752
Cu 3.5275 -0.0538 -0.0505
P 5.9875 -0.0538 -0.0505
N 6.9691 -1.4090 0.6500
C 6.6332 -1.6864 2.0749
C 6.6579 -2.6920 -0.0419
N 6.4763 -0.3168 -1.7635
C 6.0444 0.7893 -2.6356
C 7.9445 -0.4548 -1.9245
N 6.4236 1.1642 1.1994
C 7.8766 1.4484 1.2123
C 5.7335 2.4508 0.9706
H -1.7215 -0.5377 0.7785
H -2.7054 -2.0554 2.4679
H -1.2551 -3.5437 3.8208
H 1.1938 -3.5304 3.4781
H 2.2009 -2.0112 1.8122
H 1.6575 1.6038 2.4028
H 0.5944 3.7129 3.1992
H -1.2336 4.7678 1.8948
H -1.9739 3.7585 -0.2387
H -0.9274 1.6972 -1.0520
H -0.5254 -2.3626 -1.1059
H -1.0963 -3.0085 -3.4157
H -0.2923 -1.6569 -5.3275
H 1.5923 0.9935 -2.6109
H 6.8862 -0.8539 2.7556
H 7.2211 -2.5642 2.4431
H 5.5602 -1.9688 2.2170
H 6.7107 -2.6466 -1.1417
H 5.6353 -3.0699 0.1872
H 7.3966 -3.4674 0.2639
H 4.9509 0.9544 -2.5800
H 6.2773 0.5360 -3.6979
H 6.5885 1.7342 -2.4040
H 8.3691 -1.3223 -1.3896
H 8.4879 0.4440 -1.5721
H 8.1925 -0.6455 -2.9928
H 8.4809 0.5295 1.3324
H 8.1225 2.1029 2.0807
H 8.2137 1.9906 0.2975
H 4.6344 2.3343 1.0387
H 6.0074 2.9136 -0.0074
H 6.0263 3.1867 1.7589
