49
 
P 0.9664 0.0508 0.0793
C 0.1830 -0.9884 1.3334
C -1.1929 -0.9987 1.5490
C -1.7354 -1.7516 2.5961
C -0.9080 -2.5012 3.4389
C 0.4732 -2.4952 3.2422
C 1.0213 -1.7358 2.1990
C 0.3494 1.7043 0.3826
C 0.7154 2.3975 1.5384
C 0.1449 3.6445 1.8142
C -0.7932 4.1997 0.9371
C -1.1434 3.5206 -0.2329
C -0.5690 2.2768 -0.5150
C 0.5900 -0.9762 -1.3623
C -0.7414 -1.2293 -1.7707
C -0.9994 -1.9681 -2.9328
C 0.0612 -2.4427 -3.7055
C 1.3773 -2.1594 -3.3298
C 1.6394 -1.4270 -2.1665
Cu 3.4264 0.0508 0.0793
N 5.5264 0.0508 0.0793
C 6.2041 -1.1076 0.2766
N 7.5577 -1.0892 0.3861
C 8.2597 0.0729 0.2634
O 9.6059 0.0904 0.4108
C 10.3404 -1.0035 0.8209
C 7.5765 1.2640 0.0028
C 6.1842 1.2287 -0.0679
H -1.8390 -0.4004 0.9310
H -2.8016 -1.7406 2.7613
H -1.3377 -3.0760 4.2507
H 1.1127 -3.0694 3.9074
H 2.1021 -1.7283 2.0835
H 1.4264 1.9643 2.2288
H 0.4177 4.1722 2.7172
H -1.2515 5.1532 1.1662
H -1.8717 3.9508 -0.9105
H -0.8673 1.7523 -1.4151
H -1.5896 -0.8468 -1.2222
H -2.0201 -2.1645 -3.2441
H -0.1362 -3.0153 -4.6036
H 2.1972 -2.5001 -3.9459
H 2.6602 -1.1910 -1.9018
H 5.6633 -2.0346 0.4070
H 11.4165 -0.7363 0.8514
H 10.1977 -1.8473 0.1140
H 10.0261 -1.3158 1.8417
H 8.1061 2.2014 -0.1157
H 5.6210 2.1367 -0.2404
