49
 
P 0.9515 -0.0227 -0.0845
C 0.2254 0.7862 -1.5453
C -1.1422 0.9148 -1.8346
C -1.5569 1.5192 -3.0312
C -0.6192 1.9963 -3.9514
C 0.7408 1.8855 -3.6736
C 1.1593 1.2874 -2.4809
C 0.5088 -1.7307 -0.4556
C 1.4991 -2.7014 -0.6377
C 1.1283 -4.0492 -0.8017
C -0.2225 -4.4248 -0.7849
C -1.2098 -3.4590 -0.5999
C -0.8476 -2.1216 -0.4334
C 0.4059 0.8468 1.4007
C -0.9724 0.9340 1.6661
C -1.4443 1.4989 2.8494
C -0.5431 1.9661 3.8027
C 0.8343 1.8491 3.5762
C 1.3139 1.2865 2.3777
Cu 3.4115 -0.0227 -0.0845
N 5.5115 -0.0227 -0.0845
C 6.1616 -1.1881 0.1729
C 7.5458 -1.1802 0.3864
C 8.2649 0.0131 0.2170
C 9.7466 0.0680 0.4474
C 7.5772 1.1790 -0.1388
C 6.1838 1.1505 -0.2222
H -1.8987 0.5584 -1.1664
H -2.6111 1.6149 -3.2502
H -0.9451 2.4524 -4.8788
H 1.4697 2.2593 -4.3853
H 2.2258 1.2080 -2.2972
H 2.5500 -2.4048 -0.6226
H 1.8850 -4.8109 -0.9233
H -0.5073 -5.4643 -0.8992
H -2.2553 -3.7482 -0.5628
H -1.6374 -1.4121 -0.2494
H -1.6987 0.5442 0.9776
H -2.5116 1.5591 3.0289
H -0.9185 2.4010 4.7215
H 1.5223 2.1855 4.3409
H 2.3811 1.1646 2.2274
H 5.5932 -2.0918 0.3498
H 8.0469 -2.0885 0.6983
H 10.1324 -0.8943 0.8456
H 9.9676 0.8582 1.1981
H 10.2769 0.3091 -0.4965
H 8.1093 2.1076 -0.3071
H 5.6371 2.0529 -0.4621
