55
 
P 1.0723 0.0580 -0.0376
C 0.3130 -0.8375 -1.6148
C -1.2241 -0.8743 -1.6997
C 0.7516 -0.2511 -2.9973
C 0.8477 -2.2897 -1.6855
C 0.6142 -1.0959 1.5480
C 1.3174 -2.4677 1.4950
C 1.0028 -0.6246 2.9985
C -0.9197 -1.2877 1.7246
C 0.6075 1.8762 -0.1169
C 1.1327 2.8623 1.0206
C 2.6758 2.8200 1.0371
C 0.6515 4.3037 0.7416
C 0.6267 2.5819 2.4447
Ni 3.5323 0.0580 -0.0376
N 5.6323 0.0580 -0.0376
C 6.2741 -1.1293 0.1260
C 7.6669 -1.1661 0.2336
Cl 8.4978 -2.6922 0.4736
C 8.3861 0.0301 0.1708
C 7.7075 1.2393 -0.0024
C 6.3128 1.2332 -0.1030
H -1.6442 0.1348 -1.8549
H -1.7201 -1.3254 -0.8594
H -1.5387 -1.5352 -2.5424
H 0.4644 0.8057 -3.1408
H 0.2178 -0.8106 -3.8156
H 1.8243 -0.4081 -3.2422
H 0.2827 -2.9416 -1.0243
H 1.9533 -2.3183 -1.5163
H 0.6588 -2.7873 -2.6617
H 2.4059 -2.3221 1.3448
H 0.9213 -3.1786 0.7906
H 1.1612 -3.0482 2.4318
H 2.0879 -0.4751 3.1687
H 0.7151 -1.4019 3.7517
H 0.3382 0.1440 3.4327
H -1.3865 -1.9062 0.9693
H -1.4358 -0.3038 1.8403
H -1.1637 -1.8825 2.6337
H -0.5029 1.9345 -0.1373
H 0.9863 2.2642 -1.0828
H 3.0723 3.1378 0.0578
H 3.0537 1.8011 1.2530
H 3.0633 3.4993 1.8305
H 0.9813 4.6463 -0.2544
H 1.0665 5.0080 1.5038
H -0.4584 4.3802 0.8120
H 1.2070 1.7614 2.8083
H -0.4816 2.4647 2.5151
H 0.9141 3.3747 3.1740
H 5.6950 -2.0410 0.1949
H 9.4645 0.0239 0.2657
H 8.2560 2.1713 -0.0418
H 5.7702 2.1629 -0.2111
