59
 
P 0.9782 0.0161 0.0963
C 0.1935 -0.7501 1.5366
C -1.1751 -0.7177 1.7638
C -1.7162 -1.3280 2.9069
C -3.1784 -1.2334 3.1699
C -0.8832 -2.0047 3.8142
C 0.4855 -2.0703 3.5800
C 1.0169 -1.4483 2.4509
C 0.3462 1.6708 0.3632
C 0.7096 2.4438 1.4571
C 0.0964 3.6910 1.6624
C 0.4241 4.4927 2.8759
C -0.8593 4.1690 0.7482
C -1.1975 3.4095 -0.3703
C -0.5987 2.1639 -0.5627
C 0.5926 -1.0430 -1.2890
C -0.7446 -1.3576 -1.6063
C -1.0429 -2.2687 -2.6286
C -2.4731 -2.6535 -2.9236
C 0.0125 -2.8431 -3.3511
C 1.3469 -2.4977 -3.0592
C 1.6460 -1.5895 -2.0219
Ni 3.4382 0.0161 0.0963
N 5.5382 0.0161 0.0963
C 6.2457 0.0116 1.2691
O 5.6360 -0.0560 2.4742
C 4.3333 0.3099 2.7094
C 7.6426 0.0503 1.2385
C 8.2985 0.1927 0.0177
C 7.5586 0.2405 -1.1633
C 6.1679 0.1053 -1.1063
H -1.8125 -0.2038 1.0650
H -3.6877 -0.6737 2.3576
H -3.3223 -0.6811 4.1206
H -3.6233 -2.2461 3.2463
H -1.2907 -2.4822 4.6978
H 1.1346 -2.6011 4.2721
H 2.0717 -1.5476 2.2996
H 1.4418 2.0592 2.1525
H 1.2065 3.9914 3.4834
H -0.4965 4.5768 3.4897
H 0.7779 5.5042 2.5901
H -1.3469 5.1241 0.9050
H -1.9386 3.7761 -1.0739
H -0.8992 1.5775 -1.4248
H -1.5586 -0.9196 -1.0479
H -3.1936 -2.0861 -2.2941
H -2.6149 -3.7334 -2.7036
H -2.7292 -2.4704 -3.9891
H -0.2048 -3.5561 -4.1402
H 2.1410 -2.9519 -3.6352
H 2.6819 -1.2906 -1.7492
H 4.0920 0.0883 3.7698
H 3.6619 -0.3119 2.1464
H 4.2332 1.4022 2.5459
H 8.2123 0.0067 2.1587
H 9.3769 0.2813 -0.0089
H 8.0585 0.3937 -2.1109
H 5.5813 0.1668 -2.0133
