69
 
P 1.0542 -0.0715 0.0442
C 0.2596 -0.9425 -1.3266
C -1.1203 -1.0647 -1.5144
C -1.6175 -1.9024 -2.5140
C -0.7461 -2.5955 -3.3669
C -1.2789 -3.5976 -4.3460
C 0.6327 -2.3744 -3.2673
C 1.1310 -1.5549 -2.2513
C 0.6007 -1.3238 1.2723
C 1.5583 -2.0219 2.0123
C 1.1527 -2.9634 2.9734
C -0.2136 -3.2095 3.2041
C -0.6698 -4.2606 4.1698
C -1.1675 -2.4644 2.5125
C -0.7628 -1.5273 1.5717
C 0.4953 1.6264 0.1918
C -0.2664 1.9675 1.3228
C -0.7996 3.2477 1.4617
C -0.5752 4.2106 0.4705
C -1.2092 5.5670 0.5779
C 0.2247 3.8841 -0.6400
C 0.7582 2.5933 -0.7804
Ni 3.5142 -0.0715 0.0442
P 5.9742 -0.0715 0.0442
C 6.7736 1.6040 0.0375
C 6.3723 2.4087 -1.2211
C 6.2337 2.3967 1.2442
C 6.4426 -0.7664 1.6924
C 5.9997 -2.2225 1.8442
C 7.9670 -0.6741 1.9082
C 6.4712 -0.9658 -1.4545
H -1.8219 -0.5518 -0.8859
H -2.6867 -2.0329 -2.5987
H -2.3789 -3.7119 -4.2403
H -0.8226 -4.5860 -4.1138
H -1.0350 -3.3187 -5.3894
H 1.3222 -2.8725 -3.9419
H 2.2072 -1.4337 -2.1646
H 2.6093 -1.8326 1.8532
H 1.9014 -3.5041 3.5347
H 0.1919 -4.8010 4.6112
H -1.2944 -4.9989 3.6200
H -1.2778 -3.8131 4.9837
H -2.2280 -2.6074 2.6950
H -1.5385 -0.9591 1.0988
H -0.4724 1.2378 2.0959
H -1.4032 3.4781 2.3327
H -1.8437 5.6518 1.4876
H -1.8657 5.7236 -0.3045
H -0.4368 6.3617 0.6070
H 0.4139 4.6230 -1.4070
H 1.3514 2.3432 -1.6492
H 7.8773 1.5446 0.0717
H 5.2650 2.4654 -1.3384
H 6.8093 1.9814 -2.1446
H 6.7412 3.4577 -1.1390
H 5.1216 2.4799 1.1918
H 6.6582 3.4218 1.2658
H 6.5020 1.9226 2.2038
H 5.9323 -0.1787 2.4794
H 6.5660 -2.8941 1.1626
H 4.9169 -2.3238 1.6400
H 6.1915 -2.5543 2.8895
H 8.5218 -1.2328 1.1227
H 8.2480 -1.0788 2.9023
H 8.3160 0.3767 1.8949
H 6.0909 -0.4354 -2.3522
H 6.0813 -2.0012 -1.4333
H 7.5813 -0.9872 -1.4996
