65
 
P 1.0238 0.0598 0.0766
C 0.2470 -1.6767 -0.4783
C -1.2879 -1.7465 -0.5145
C 0.6550 -2.2203 -1.8930
C 0.7680 -2.7955 0.4567
C 0.5120 0.3172 2.0203
C 1.1338 -0.7350 2.9470
C 0.9027 1.6353 2.7960
C -1.0246 0.3258 2.2337
C 0.4232 1.3652 -1.1733
C 0.8350 2.9154 -0.9877
C 2.2813 2.9247 -0.9277
C 0.4478 3.7853 -2.1978
C 0.3999 3.6838 0.2560
Ni 3.4838 0.0598 0.0766
C 5.6338 0.0598 0.0766
N 6.4902 0.8936 -0.5744
C 6.1865 1.9893 -1.4489
C 4.7428 2.0684 -1.5128
C 7.7396 0.5191 -0.2744
C 7.6601 -0.5729 0.5495
N 6.3530 -0.8522 0.7553
C 5.8126 -1.9349 1.5504
C 4.2781 -1.8808 1.5129
H -1.7001 -1.1169 -1.3220
H -1.7837 -1.4973 0.3954
H -1.6160 -2.8034 -0.6577
H 0.3754 -1.5492 -2.7241
H 0.0834 -3.1717 -2.0932
H 1.7093 -2.5611 -1.9850
H 0.2315 -2.8042 1.3919
H 1.8675 -2.7371 0.5787
H 0.5484 -3.8253 0.1049
H 2.2075 -0.7376 2.8077
H 0.7252 -1.7229 2.8999
H 0.9522 -0.5209 4.0204
H 1.9897 1.8368 2.8838
H 0.5591 1.5746 3.8593
H 0.2527 2.5070 2.6273
H -1.5008 -0.6262 2.0832
H -1.5119 1.1469 1.6552
H -1.2918 0.4721 3.3030
H -0.6789 1.3273 -1.2387
H 0.8251 1.0238 -2.1536
H 2.5150 2.4675 -1.8954
H 2.5738 2.3014 -0.0488
H 2.7609 3.9320 -0.8380
H 0.8135 3.3214 -3.1371
H 0.9466 4.7881 -2.1234
H -0.6420 3.9439 -2.2358
H 0.9868 3.3067 1.0652
H -0.6929 3.6847 0.4103
H 0.7811 4.7340 0.2580
H 6.6028 1.8295 -2.4614
H 6.5605 2.9499 -1.0192
H 4.1558 1.1283 -1.7108
H 4.5080 2.9093 -2.1987
H 4.5100 2.2652 -0.4584
H 8.6307 1.0116 -0.6474
H 8.5006 -1.1173 0.9557
H 6.1841 -1.8266 2.5944
H 6.1884 -2.9024 1.1477
H 3.9750 -0.9054 1.8791
H 3.8966 -2.7065 2.1493
H 3.8926 -1.9568 0.4923
