66
 
P 1.0094 0.0618 -0.0780
C 0.2368 1.6936 -0.1179
C -1.1330 1.9493 -0.2662
C -1.5716 3.2613 -0.5054
C -0.6526 4.3251 -0.5732
C -1.0954 5.7199 -0.9089
C 0.7060 4.0717 -0.3626
C 1.1440 2.7675 -0.1443
C 0.5585 -0.7021 -1.6615
C -0.2547 -0.0491 -2.5988
C -0.7536 -0.7287 -3.7052
C -0.4368 -2.0736 -3.9173
C -1.0625 -2.8150 -5.0628
C 0.4350 -2.7218 -3.0281
C 0.9262 -2.0410 -1.9020
C 0.5463 -0.5493 1.5468
C -0.8109 -0.7875 1.8160
C -1.2130 -1.3269 3.0367
C -0.2600 -1.6545 4.0083
C -0.6967 -2.1675 5.3509
C 1.1056 -1.4819 3.7181
C 1.5092 -0.9308 2.4896
Ni 3.4694 0.0618 -0.0780
C 5.6194 0.0618 -0.0780
N 6.3706 0.2822 1.0115
C 5.8827 0.5122 2.3616
C 7.6523 0.2203 0.6036
C 7.6535 -0.0257 -0.7553
N 6.3704 -0.1296 -1.1689
C 5.8898 -0.3758 -2.4957
C 4.6142 -0.9417 -2.7062
C 4.2120 -1.2534 -4.0163
C 5.0329 -0.9296 -5.1065
C 6.2618 -0.3038 -4.8967
C 6.6975 -0.0499 -3.5992
H -1.8500 1.1447 -0.2827
H -2.6238 3.4413 -0.6779
H -2.1854 5.7619 -1.1130
H -0.5648 6.0625 -1.8257
H -0.8538 6.4129 -0.0775
H 1.4325 4.8759 -0.4128
H 2.2100 2.5914 -0.0406
H -0.5616 0.9705 -2.4772
H -1.4194 -0.2055 -4.3783
H -1.7722 -2.1655 -5.6213
H -1.6456 -3.6731 -4.6633
H -0.2903 -3.1862 -5.7646
H 0.6954 -3.7631 -3.1841
H 1.5527 -2.5781 -1.1984
H -1.5675 -0.5766 1.0760
H -2.2690 -1.4906 3.2192
H -1.8054 -2.1839 5.4398
H -0.3108 -1.4774 6.1309
H -0.3085 -3.1889 5.5408
H 1.8529 -1.7695 4.4471
H 2.5641 -0.8144 2.2673
H 4.7671 0.5067 2.3671
H 6.2520 1.4906 2.7345
H 6.2574 -0.2952 3.0265
H 8.5192 0.3402 1.2402
H 8.5280 -0.1424 -1.3820
H 3.9588 -1.1663 -1.8645
H 3.2641 -1.7429 -4.1961
H 4.7177 -1.1518 -6.1182
H 6.8860 -0.0224 -5.7363
H 7.6575 0.4289 -3.4570
