78
 
P 0.9266 0.0665 -0.0139
C 0.1679 -0.5551 1.7078
C -1.3686 -0.5950 1.7898
C 0.5773 -1.9855 2.2109
C 0.7072 0.3462 2.8440
C 0.4292 2.0167 -0.1842
C 1.1062 2.8735 0.8975
C 0.7990 2.8471 -1.4747
C -1.1084 2.2467 -0.1666
C 0.4518 -1.1644 -1.3626
C 0.9666 -0.9328 -2.8581
C 2.5009 -0.9023 -2.8279
C 0.4977 -2.0742 -3.7801
C 0.4772 0.3378 -3.5674
Ni 3.3866 0.0665 -0.0139
P 5.8466 0.0665 -0.0139
O 6.9126 1.3525 0.3971
C 6.3507 2.0479 1.5377
C 7.0419 3.3976 1.8025
C 4.8247 2.3767 1.4977
O 6.2196 -0.8266 1.3922
C 5.8127 -2.1749 1.2932
C 6.3838 -2.9194 0.0673
C 6.3228 -2.8762 2.5558
O 6.4520 -0.2079 -1.5930
C 5.9098 0.6662 -2.5583
C 6.3396 2.1229 -2.3513
C 6.4204 0.2013 -3.9257
H -1.7871 -1.3832 1.1402
H -1.8749 0.3162 1.5741
H -1.6879 -0.7635 2.8454
H 0.3062 -2.7992 1.5155
H -0.0023 -2.2156 3.1513
H 1.6268 -2.0853 2.5645
H 0.1444 1.2663 2.8835
H 1.8165 0.4807 2.7635
H 0.4971 -0.0321 3.8670
H 2.1901 2.6670 0.8900
H 0.7066 2.8059 1.8890
H 0.9365 3.9594 0.7346
H 1.8840 2.9761 -1.6646
H 0.4254 3.8984 -1.3742
H 0.1762 2.6616 -2.3653
H -1.5934 2.0259 0.7627
H -1.6077 1.7413 -1.0292
H -1.3669 3.3263 -0.2227
H -0.6576 -1.2287 -1.3864
H 0.8411 -2.1504 -1.0423
H 2.8878 -1.8399 -2.4066
H 2.8546 -0.1033 -2.1434
H 2.9039 -0.7544 -3.8617
H 0.8230 -3.0454 -3.3713
H 0.9404 -1.9572 -4.8006
H -0.6091 -2.0665 -3.9087
H 1.0493 1.1271 -3.1359
H -0.6326 0.4684 -3.5557
H 0.8032 0.4039 -4.6326
H 6.5458 1.4156 2.4247
H 6.8175 4.1471 1.0094
H 8.1359 3.2900 1.9173
H 6.6463 3.8160 2.7593
H 4.5704 3.1116 0.7005
H 4.5126 2.7984 2.4769
H 4.1903 1.4871 1.3935
H 4.7023 -2.2302 1.2953
H 7.4911 -2.8308 0.0409
H 5.9613 -2.5280 -0.8782
H 6.1025 -3.9924 0.1034
H 7.4348 -2.8389 2.5969
H 6.0026 -3.9393 2.5742
H 5.9253 -2.3711 3.4612
H 4.8116 0.5978 -2.5849
H 7.4461 2.1840 -2.2697
H 5.8694 2.5494 -1.4450
H 5.9971 2.7455 -3.2027
H 7.5315 0.2455 -3.9581
H 6.0139 0.8526 -4.7285
H 6.1036 -0.8437 -4.1309
