75
 
P 0.9538 0.0885 -0.0060
C 0.2072 -1.5019 0.5723
C -1.3100 -1.5744 0.6371
C 0.7659 -2.6453 -0.2907
C 0.3794 1.4087 1.1400
C 0.8319 1.2324 2.5785
C 0.8291 2.7760 0.6078
C 0.4785 0.1932 -1.7594
Ni 3.4138 0.0885 -0.0060
P 5.8738 0.0885 -0.0060
C 6.6636 1.6754 -0.7899
C 6.2218 1.9423 -2.2662
C 4.7392 2.3846 -2.4047
C 4.4097 3.6011 -1.5197
C 4.8218 3.3114 -0.0833
C 6.3358 3.0214 -0.0797
C 6.4656 0.0420 1.8097
C 5.9676 1.1816 2.7190
C 4.4459 1.1370 2.8581
C 4.0358 -0.1679 3.5403
C 4.5603 -1.3667 2.7444
C 6.0830 -1.2554 2.5822
C 6.1294 -1.3582 -1.1081
C 7.4061 -1.8620 -1.5227
C 8.7195 -1.1777 -1.2969
C 7.4864 -3.0890 -2.2048
C 6.3417 -3.8125 -2.5106
C 5.0914 -3.3174 -2.1457
C 4.9813 -2.1031 -1.4486
H 0.5962 -1.6804 1.5993
H -1.7597 -1.3789 -0.3540
H -1.6966 -0.8686 1.3981
H -1.5987 -2.6018 0.9612
H 0.3997 -2.5781 -1.3345
H 0.4573 -3.6313 0.1157
H 1.8784 -2.6199 -0.2978
H -0.7299 1.3841 1.1293
H 1.9073 1.4134 2.6440
H 0.5721 0.2272 2.9628
H 0.3407 1.9915 3.2241
H 1.9360 2.8353 0.5610
H 0.4593 3.5932 1.2633
H 0.4239 2.9492 -0.4120
H -0.6325 0.2095 -1.8160
H 0.8790 -0.6352 -2.3679
H 0.8431 1.1591 -2.1665
H 7.7576 1.6291 -0.7601
H 6.4337 1.0749 -2.9197
H 6.8354 2.7919 -2.6539
H 4.0798 1.5424 -2.1172
H 4.5231 2.6638 -3.4602
H 3.3249 3.8437 -1.5722
H 4.9665 4.5032 -1.8631
H 4.2330 2.4518 0.2819
H 4.5860 4.1911 0.5532
H 6.8236 3.1183 0.8767
H 6.8396 3.8706 -0.5938
H 7.5783 0.0682 1.7782
H 6.2828 2.1537 2.4242
H 6.4440 1.0965 3.7223
H 3.9484 1.1797 1.8649
H 4.1168 2.0065 3.4654
H 2.9371 -0.2396 3.6304
H 4.4535 -0.1846 4.5710
H 4.0884 -1.3971 1.7416
H 4.2887 -2.2954 3.2871
H 6.5091 -2.1628 2.1137
H 6.5246 -1.2116 3.6128
H 8.6032 -0.1490 -1.0039
H 9.2825 -1.1452 -2.2565
H 9.3247 -1.6992 -0.5304
H 8.4503 -3.4883 -2.5076
H 6.4320 -4.7583 -3.0344
H 4.2097 -3.8961 -2.3889
H 3.9987 -1.7683 -1.1454
