64
 
P 1.0511 -0.0158 0.0845
C 0.3089 0.9033 -1.3250
C 1.1307 1.5775 -2.3149
C 2.6469 1.5829 -2.3949
C 0.5213 2.3797 -3.2926
C -0.8494 2.5828 -3.2865
C -1.6442 1.9398 -2.3404
C -1.0775 1.0844 -1.3885
C 0.5897 -1.7444 -0.1971
C 0.9592 -2.5232 -1.3044
C 1.8104 -1.9824 -2.4025
C 0.5374 -3.8661 -1.3735
C -0.2191 -4.4404 -0.3466
C -0.5635 -3.6832 0.7663
C -0.1668 -2.3483 0.8391
C 0.5723 0.8342 1.6438
C 0.9291 0.3373 2.9442
C 1.7864 -0.8723 3.2236
C 0.4281 0.9774 4.0928
C -0.4257 2.0679 3.9918
C -0.7704 2.5617 2.7416
C -0.2679 1.9657 1.5854
Ni 3.5111 -0.0158 0.0845
P 5.9711 -0.0158 0.0845
C 6.8595 -1.1382 -1.0299
C 6.4722 1.6393 -0.4612
C 6.5068 -0.4717 1.7359
C 5.5957 -0.8101 2.7414
C 6.0591 -1.1202 4.0291
C 7.4317 -1.1052 4.3055
C 8.3432 -0.8025 3.2924
C 7.8825 -0.4880 2.0134
H 3.1449 1.1747 -1.5181
H 3.0155 2.6297 -2.4839
H 3.0007 1.0397 -3.3011
H 1.1222 2.9011 -4.0351
H -1.2893 3.2594 -4.0089
H -2.7065 2.1280 -2.3294
H -1.7146 0.6238 -0.6495
H 2.1603 -0.9629 -2.1908
H 1.2295 -1.9925 -3.3468
H 2.7216 -2.6034 -2.4963
H 0.8108 -4.4783 -2.2206
H -0.5294 -5.4764 -0.4068
H -1.1356 -4.1315 1.5737
H -0.4506 -1.7959 1.7275
H 2.1369 -1.4058 2.3218
H 1.2073 -1.5916 3.8471
H 2.6675 -0.5597 3.8245
H 0.6800 0.6092 5.0815
H -0.8257 2.5256 4.8873
H -1.4439 3.4050 2.6653
H -0.5796 2.3964 0.6540
H 6.5010 -0.9610 -2.0666
H 6.4999 -2.1644 -0.7643
H 7.9558 -1.1090 -0.9547
H 6.1090 1.8592 -1.4814
H 7.5846 1.6843 -0.4426
H 6.0907 2.3900 0.2621
H 4.5390 -0.8236 2.5272
H 5.3586 -1.3657 4.8167
H 7.7925 -1.3297 5.3013
H 9.4065 -0.8021 3.4972
H 8.6014 -0.2513 1.2395
