56
 
P 0.9644 0.0049 0.0933
C 0.1784 1.5739 0.5582
C -1.1882 1.8942 0.5280
C -1.6250 3.1477 0.9930
C -0.7134 4.0769 1.5096
Cl -1.2680 5.6272 2.1192
C 0.6419 3.7615 1.5560
C 1.0802 2.5259 1.0805
C 0.5297 -0.1156 -1.6615
C 1.5176 -0.2765 -2.6334
C 1.1852 -0.4586 -3.9771
C -0.1540 -0.5173 -4.3660
Cl -0.5688 -0.7479 -6.0540
C -1.1579 -0.4255 -3.4007
C -0.8189 -0.2333 -2.0576
C 0.4682 -1.3026 1.2486
C -0.2053 -2.4200 0.7204
C -0.6619 -3.4453 1.5526
C -0.4522 -3.3705 2.9295
Cl -1.0705 -4.6397 3.9751
C 0.2409 -2.2791 3.4682
C 0.7072 -1.2471 2.6323
Ni 3.4244 0.0049 0.0933
C 5.5744 0.0049 0.0933
N 6.3304 0.8648 -0.5822
C 5.8083 1.9432 -1.4098
C 4.2524 1.9600 -1.3710
C 7.6077 0.5116 -0.3200
C 7.5790 -0.5817 0.5402
N 6.2856 -0.8805 0.7833
C 5.7075 -1.9345 1.6107
C 4.1514 -1.8891 1.5838
H -1.9257 1.2040 0.1709
H -2.6770 3.3955 0.9678
H 1.3562 4.4660 1.9701
H 2.1376 2.3029 1.1523
H 2.5430 -0.3120 -2.3572
H 1.9719 -0.5752 -4.7102
H -2.1988 -0.5190 -3.6871
H -1.6194 -0.2214 -1.3388
H -0.3882 -2.5019 -0.3425
H -1.1888 -4.2916 1.1262
H 0.4049 -2.2309 4.5373
H 1.2319 -0.4096 3.0698
H 6.1676 1.8011 -2.4550
H 6.2143 2.9081 -1.0364
H 3.8698 1.0358 -1.7512
H 3.9090 2.8053 -2.0052
H 3.8305 2.0353 -0.3670
H 8.4884 1.0034 -0.7133
H 8.4305 -1.1102 0.9503
H 6.0734 -1.8124 2.6541
H 6.0606 -2.9174 1.2304
H 3.7542 -0.9363 1.9607
H 3.7756 -2.7131 2.2242
H 3.7566 -2.0304 0.5656
