87
 
P 0.9323 -0.0060 -0.0733
C 0.0546 -1.3359 0.8118
C 0.7870 -2.1522 1.7242
C 0.1534 -3.1910 2.4444
C 0.8978 -4.0507 3.4466
C -1.2093 -3.4245 2.2253
C -1.9221 -2.6413 1.3088
C -1.2956 -1.6007 0.6092
C 0.5224 1.3540 1.0411
C 0.9252 1.2978 2.3771
C 0.5556 2.3088 3.2770
C 0.9458 2.2173 4.7192
C -0.2044 3.3980 2.8265
C -0.6000 3.4702 1.4903
C -0.2480 2.4500 0.6013
C 0.5853 0.1075 -1.8614
C 0.3227 -1.0728 -2.5767
C 0.1062 -1.0417 -3.9671
C -0.0947 -2.3041 -4.7486
C 0.1115 0.1827 -4.6437
C 0.3481 1.3648 -3.9443
C 0.5997 1.3317 -2.5645
Ni 3.3923 -0.0060 -0.0733
P 5.8523 -0.0060 -0.0733
C 6.4243 1.7130 -0.4507
C 6.1454 2.8168 0.4486
C 5.4150 2.7278 1.7748
C 6.5083 4.1268 0.0866
C 7.0710 4.3901 -1.1518
C 7.3154 3.3460 -2.0369
C 7.0135 2.0247 -1.6886
C 6.3874 -0.5704 1.5667
C 5.9700 -1.8051 2.1137
C 5.0794 -2.7628 1.3738
C 6.4090 -2.1735 3.3997
C 7.2639 -1.3458 4.1303
C 7.7115 -0.1506 3.5777
C 7.2812 0.2322 2.3077
C 6.4145 -1.0070 -1.5078
C 7.8080 -1.2458 -1.7778
C 8.9635 -0.6805 -0.9869
C 8.1786 -2.0680 -2.8552
C 7.2189 -2.6556 -3.6671
C 5.8667 -2.4530 -3.4006
C 5.4644 -1.6445 -2.3260
H 1.8462 -1.9758 1.8907
H 1.9595 -3.7449 3.5591
H 0.8783 -5.1187 3.1363
H 0.4190 -3.9815 4.4497
H -1.7210 -4.2142 2.7662
H -2.9702 -2.8403 1.1421
H -1.8529 -1.0099 -0.0998
H 1.5055 0.4528 2.7194
H 1.5577 1.3113 4.9153
H 0.0261 2.1558 5.3388
H 1.5295 3.1130 5.0140
H -0.4970 4.1848 3.5116
H -1.1950 4.3101 1.1492
H -0.6036 2.5232 -0.4149
H 0.3123 -2.0204 -2.0549
H -0.0788 -3.1981 -4.0911
H 0.7374 -2.3960 -5.4797
H -1.0579 -2.2751 -5.3000
H -0.0564 0.2170 -5.7155
H 0.3530 2.3048 -4.4839
H 0.8077 2.2677 -2.0699
H 4.8899 1.7688 1.9277
H 4.6337 3.5215 1.8174
H 6.1086 2.9340 2.6223
H 6.3054 4.9644 0.7499
H 7.2919 5.4133 -1.4322
H 7.7241 3.5671 -3.0119
H 7.1983 1.2652 -2.4254
H 4.7462 -2.3888 0.3891
H 4.1732 -2.9785 1.9717
H 5.6472 -3.7032 1.2055
H 6.0870 -3.1083 3.8402
H 7.5912 -1.6368 5.1208
H 8.3943 0.4814 4.1339
H 7.6663 1.1590 1.9094
H 8.6706 0.0393 -0.2053
H 9.6568 -0.1605 -1.6852
H 9.5319 -1.5097 -0.5089
H 9.2270 -2.2509 -3.0724
H 7.5323 -3.2749 -4.5000
H 5.1315 -2.9335 -4.0321
H 4.4076 -1.5281 -2.1316
