80
 
P 0.9219 0.0123 -0.0612
C 0.1778 -1.6449 -0.8411
C -1.3570 -1.7335 -0.8920
C 0.6047 -1.9934 -2.3107
C 0.7164 -2.8610 -0.0495
C 0.4435 -0.0026 1.9028
C 1.1447 -1.1517 2.6444
C 0.8066 1.2073 2.8549
C -1.0909 -0.0668 2.1424
C 0.4450 1.4643 -1.1625
C 0.9422 2.9362 -0.7818
C 2.4748 2.9539 -0.7435
C 0.4584 3.9620 -1.8190
C 0.4432 3.4833 0.5541
Ni 3.3819 0.0123 -0.0612
P 5.8419 0.0123 -0.0612
C 6.5306 -0.0529 -1.8029
C 6.0816 1.1833 -2.6200
C 8.0661 -0.1047 -1.8243
C 5.8468 -1.2366 -2.5593
C 6.2954 1.6208 0.7037
C 7.0915 1.6432 1.8770
C 7.3788 2.8531 2.5325
C 6.8880 4.0556 2.0262
C 6.1305 4.0531 0.8542
C 5.8359 2.8479 0.1992
C 6.2587 -1.5751 0.7784
C 6.9947 -2.6403 0.2003
C 7.2723 -3.8062 0.9136
C 6.8566 -3.9338 2.2327
C 6.1665 -2.8865 2.8431
C 5.8638 -1.7210 2.1221
H -1.7798 -1.0055 -1.6057
H -1.8574 -1.6207 0.0451
H -1.6667 -2.7662 -1.1798
H 0.3337 -1.2188 -3.0496
H 0.0417 -2.9119 -2.6433
H 1.6625 -2.3143 -2.4320
H 0.1463 -2.9968 0.8612
H 1.8222 -2.7859 0.1042
H 0.5226 -3.8409 -0.5355
H 2.2346 -1.1099 2.4372
H 0.7482 -2.1330 2.4731
H 0.9728 -1.0983 3.7419
H 1.8916 1.4026 2.9765
H 0.4549 1.0009 3.8975
H 0.1696 2.1073 2.7750
H -1.5613 -0.9835 1.8370
H -1.6080 0.8279 1.7180
H -1.3377 -0.1054 3.2261
H -0.6658 1.4845 -1.2191
H 0.8316 1.2413 -2.1758
H 2.8684 2.6286 -1.7223
H 2.8467 2.2706 0.0509
H 2.8579 3.9721 -0.5051
H 0.8005 3.6688 -2.8259
H 0.8779 4.9720 -1.5851
H -0.6503 4.0606 -1.8043
H 1.0218 2.9505 1.2684
H -0.6640 3.4317 0.6828
H 0.7627 4.5326 0.7527
H 6.5837 2.1144 -2.3013
H 4.9761 1.3122 -2.5651
H 6.3354 1.0512 -3.6979
H 8.4709 0.8063 -1.3371
H 8.4342 -0.1454 -2.8717
H 8.4990 -0.9601 -1.2884
H 4.7410 -1.0890 -2.5656
H 5.9777 -2.2489 -2.1664
H 6.1871 -1.2818 -3.6163
H 7.4860 0.7316 2.3076
H 7.9713 2.8650 3.4422
H 7.0916 4.9888 2.5423
H 5.7563 4.9893 0.4616
H 5.2292 2.8847 -0.6860
H 7.3859 -2.6349 -0.7894
H 7.8205 -4.6108 0.4368
H 7.0811 -4.8411 2.7797
H 5.8676 -2.9817 3.8783
H 5.3335 -0.9231 2.6249
