50
 
P 1.0824 0.0457 -0.0335
C 0.3427 -0.4324 -1.6067
C -0.8530 -1.1385 -1.7610
C -1.2582 -1.5391 -3.0444
C -0.4822 -1.2270 -4.1694
C 0.6941 -0.4952 -4.0223
C 1.1042 -0.1023 -2.7487
C 0.6858 -1.4695 0.8902
C 1.0709 -2.7603 0.5087
C 0.6659 -3.8680 1.2777
C -0.1108 -3.6936 2.4305
C -0.4735 -2.4110 2.8332
C -0.0782 -1.3078 2.0705
C 0.5782 1.7430 0.4126
C 0.9300 2.3391 1.6634
O 1.6730 1.6532 2.5799
C 1.9967 2.1181 3.8496
C 0.4761 3.6497 1.9491
C -0.3161 4.3459 1.0432
C -0.6811 3.7524 -0.1596
C -0.2391 2.4659 -0.4737
Ni 3.5424 0.0457 -0.0335
N 5.6424 0.0457 -0.0335
C 6.3251 1.1831 0.2630
F 5.6468 2.3005 0.6203
C 7.7212 1.2035 0.1698
C 8.3965 0.0468 -0.2297
C 7.6749 -1.1132 -0.5174
C 6.2827 -1.0933 -0.4094
H -1.4499 -1.3975 -0.9002
H -2.1681 -2.1064 -3.1692
H -0.7876 -1.5533 -5.1558
H 1.2962 -0.2460 -4.8905
H 2.0331 0.4529 -2.6559
H 1.6643 -2.9097 -0.3798
H 0.9460 -4.8687 0.9808
H -0.4318 -4.5491 3.0152
H -1.0673 -2.2735 3.7322
H -0.3813 -0.3235 2.4092
H 2.6073 1.3667 4.3889
H 1.0771 2.3099 4.4498
H 2.5863 3.0584 3.7813
H 0.7205 4.1474 2.8789
H -0.6558 5.3462 1.2828
H -1.3136 4.2923 -0.8509
H -0.5535 2.0369 -1.4126
H 8.2743 2.1077 0.3886
H 9.4750 0.0501 -0.3230
H 8.1862 -2.0129 -0.8353
H 5.7048 -1.9757 -0.6515
