75
 
P 0.9152 -0.0229 0.0478
C -0.2850 -0.7399 1.4955
C -0.1613 -2.2708 1.9005
C 1.1220 -2.6363 2.7023
C 1.2435 -1.8293 3.9952
C 1.1100 -0.3400 3.6799
C -0.2474 -0.0857 2.9490
C 0.4429 1.8828 0.1243
C 1.0505 2.4220 1.3868
C 2.5339 2.6667 1.1979
C 2.6787 3.9562 0.4472
C 2.0531 3.7752 -0.9493
C 0.6450 3.1021 -0.9056
C 0.5708 -1.1705 -1.3624
C -0.5064 -0.8993 -2.2693
C -1.5446 0.1705 -2.0961
C -0.6728 -1.6658 -3.4276
C 0.1679 -2.7286 -3.7169
C -0.0313 -3.5340 -4.9660
C 1.1942 -3.0445 -2.8337
C 1.4209 -2.2854 -1.6680
C 2.5753 -2.7260 -0.8091
Ni 3.3752 -0.0229 0.0478
N 5.4752 -0.0229 0.0478
C 6.1112 -0.9780 -0.6661
C 7.4923 -1.1141 -0.5874
C 8.2579 -0.2599 0.2483
N 9.6900 -0.4499 0.4280
C 10.4459 -1.5171 -0.2237
C 10.4941 0.3554 1.3423
C 7.5402 0.7589 0.9344
C 6.1533 0.8522 0.8228
H -1.3190 -0.5952 1.1254
H -0.3099 -2.9630 1.0552
H -0.9995 -2.5120 2.6101
H 2.0197 -2.4321 2.1037
H 1.1116 -3.7162 2.9836
H 2.2154 -2.0512 4.4980
H 0.4386 -2.1234 4.7066
H 1.9760 -0.0204 3.0593
H 1.1587 0.2141 4.6440
H -0.5883 0.9640 2.9810
H -1.0349 -0.5187 3.6094
H -0.6560 1.8684 0.2394
H 1.0082 1.7018 2.1308
H 0.5010 3.3219 1.7505
H 3.0054 1.8757 0.6061
H 3.0286 2.6976 2.1841
H 3.7540 4.2174 0.3668
H 2.1771 4.7428 1.0570
H 2.7190 3.1374 -1.5549
H 2.0064 4.7883 -1.4220
H 0.2504 2.9460 -1.9337
H -0.0020 3.9251 -0.5010
H -1.5324 0.6243 -1.1129
H -2.5558 -0.2859 -2.1645
H -1.4433 0.9375 -2.8929
H -1.4823 -1.4323 -4.1112
H -0.8651 -3.1326 -5.5822
H -0.2664 -4.5839 -4.6967
H 0.8948 -3.5057 -5.5778
H 1.8312 -3.8884 -3.0746
H 3.1122 -3.5942 -1.2522
H 2.1896 -3.0926 0.1485
H 3.3196 -1.9373 -0.6986
H 5.5378 -1.6637 -1.2744
H 7.8969 -1.9193 -1.1697
H 9.8778 -2.1622 -0.9043
H 10.8773 -2.1882 0.5500
H 11.2730 -1.0805 -0.8209
H 9.9603 1.1537 1.8709
H 11.3237 0.8386 0.7860
H 10.9230 -0.3021 2.1288
H 7.9893 1.4802 1.5897
H 5.6105 1.6019 1.3838
