48
 
P 1.0253 -0.0467 -0.0848
C 0.2328 0.3607 1.5613
C -1.2940 0.4904 1.5519
C 0.6502 -0.6800 2.6186
C 0.8116 1.7317 1.9975
C 0.7233 1.3459 -1.2289
C 1.8287 1.9995 -1.7992
C 1.6201 3.0575 -2.7148
C 0.3224 3.4728 -3.0486
C -0.7755 2.8264 -2.4892
C -0.5810 1.7612 -1.6018
C 0.5832 -1.8015 -0.3184
C -0.7644 -2.2006 -0.4734
C -1.0967 -3.5455 -0.6870
C -0.0903 -4.5057 -0.7810
C 1.2488 -4.1163 -0.6940
C 1.5859 -2.7719 -0.4687
Ni 3.4853 -0.0467 -0.0848
N 5.5853 -0.0467 -0.0848
C 6.2291 0.7836 -0.9478
C 7.6213 0.7383 -1.0568
F 8.2655 1.5355 -1.9443
C 8.3393 -0.1544 -0.2579
C 7.6600 -0.9838 0.6381
C 6.2647 -0.9189 0.7068
H -1.7942 -0.4782 1.3990
H -1.6252 1.2352 0.8195
H -1.6478 0.8790 2.5303
H 0.2635 -1.6864 2.3599
H 0.2473 -0.4053 3.6184
H 1.7583 -0.7414 2.7009
H 0.5913 2.5201 1.2467
H 1.9158 1.6860 2.1303
H 0.3768 2.0649 2.9655
H 2.8407 1.6615 -1.5340
H 2.4555 3.5650 -3.1780
H 0.1589 4.2878 -3.7491
H -1.7809 3.1449 -2.7541
H -1.4695 1.2782 -1.2369
H -1.5698 -1.4841 -0.4509
H -2.1342 -3.8463 -0.7895
H -0.3472 -5.5474 -0.9410
H 2.0255 -4.8610 -0.8063
H 2.6286 -2.4881 -0.4311
H 5.6536 1.4501 -1.5768
H 9.4175 -0.2093 -0.3384
H 8.2078 -1.6808 1.2589
H 5.7207 -1.5711 1.3768
