61
 
P 1.0294 -0.0678 0.0674
C 0.1305 -1.5796 0.8022
C 0.5931 -2.7894 -0.0298
C 2.1347 -2.9199 0.0431
C 2.5855 -3.1565 1.4928
C 1.9674 -2.1539 2.5012
C 0.4533 -1.9815 2.2887
C 0.3673 1.1889 1.3342
C 0.8296 2.6480 1.0265
C 0.2749 3.1706 -0.3173
C -1.2660 3.1041 -0.3607
C -1.8089 1.7420 0.0803
C -1.1987 1.2749 1.4030
C 0.8736 0.0237 -1.9323
C 1.9648 0.1944 -2.9151
C 3.4025 0.4317 -2.5875
C 1.7342 0.1288 -4.3363
C 0.4798 -0.0551 -4.8651
C -0.5828 -0.1390 -3.9985
C -0.3977 -0.1154 -2.5968
Ni 3.4894 -0.0678 0.0674
N 5.5894 -0.0678 0.0674
C 6.2256 -0.3833 1.2281
C 7.6205 -0.3108 1.3112
C 8.3520 0.0946 0.1936
C 7.6869 0.4059 -0.9897
C 6.2971 0.3137 -1.0347
H -0.9706 -1.4961 0.7046
H 0.2460 -2.6531 -1.0715
H 0.1292 -3.7322 0.3480
H 2.6303 -2.0200 -0.3487
H 2.4911 -3.7313 -0.6187
H 3.6961 -3.1047 1.5502
H 2.2731 -4.1868 1.7574
H 2.4262 -1.1475 2.3925
H 2.1695 -2.5205 3.5381
H 0.0389 -1.2735 3.0370
H -0.0417 -2.9618 2.5224
H 0.7400 0.9088 2.3390
H 1.9344 2.7319 1.0355
H 0.4431 3.3243 1.8265
H 0.7256 2.5802 -1.1368
H 0.5775 4.2308 -0.4768
H -1.6287 3.3452 -1.3884
H -1.6835 3.8589 0.3338
H -1.5531 0.9993 -0.6338
H -2.9200 1.7703 0.1196
H -1.6574 0.3124 1.6928
H -1.5092 2.0092 2.1788
H 3.7803 -0.3946 -2.0006
H 3.5813 1.5010 -2.3362
H 4.0266 0.3420 -3.5274
H 2.5299 0.2156 -5.0814
H 0.3343 -0.1319 -5.9469
H -1.5698 -0.2551 -4.4320
H -1.3178 -0.2610 -2.0953
H 5.6447 -0.6709 2.0943
H 8.1287 -0.5503 2.2356
H 9.4297 0.1757 0.2443
H 8.2378 0.7328 -1.8628
H 5.8060 0.5845 -1.9466
