53
 
P 0.9561 0.0218 0.0872
C 0.5299 -0.8252 -1.4648
C -0.3953 -0.2935 -2.3777
C -0.7860 -1.0116 -3.5086
C -0.2659 -2.2827 -3.7420
C 0.6587 -2.8291 -2.8485
C 1.0588 -2.1039 -1.7165
C 0.4811 -0.7304 1.6617
C -0.1748 -1.9828 1.5844
C -0.6320 -2.6303 2.7325
C -0.4414 -2.0371 3.9772
C 0.2326 -0.8119 4.0706
C 0.7027 -0.1597 2.9170
C 0.0522 1.6181 0.2154
C 0.5092 2.5293 -0.9418
C -0.4255 3.0604 -1.8544
C -0.0136 3.8398 -2.9437
C 1.3382 4.1250 -3.1349
C 2.2834 3.6356 -2.2318
C 1.8778 2.8446 -1.1426
Ni 3.4161 0.0218 0.0872
C 5.5661 0.0218 0.0872
N 6.4256 -0.5150 -0.8283
C 6.1749 -1.2385 -2.0691
C 7.6698 -0.2514 -0.3694
Cl 9.1752 -0.7167 -1.1540
C 7.5719 0.4382 0.8086
Cl 8.9271 1.0019 1.7808
N 6.2650 0.6093 1.0919
C 5.7211 1.2972 2.2573
H -0.8568 0.6530 -2.2192
H -1.5114 -0.5868 -4.1912
H -0.5907 -2.8453 -4.6084
H 1.0503 -3.8222 -3.0273
H 1.7573 -2.5548 -1.0231
H -0.3460 -2.4724 0.6329
H -1.1427 -3.5859 2.6551
H -0.8156 -2.5306 4.8663
H 0.3807 -0.3650 5.0423
H 1.2138 0.7861 3.0023
H 0.3577 2.1227 1.1559
H -1.0435 1.4624 0.2150
H -1.4792 2.8505 -1.7396
H -0.7454 4.2180 -3.6468
H 1.6506 4.7256 -3.9833
H 3.3322 3.8654 -2.3861
H 2.6388 2.4698 -0.4699
H 5.0931 -1.3503 -2.2686
H 6.6541 -2.2422 -2.0083
H 6.6595 -0.6932 -2.9109
H 6.5404 1.6764 2.9072
H 5.1032 0.5973 2.8543
H 5.1119 2.1642 1.9318
