56
 
P 1.0812 0.0385 0.0439
O 0.4809 1.6151 0.3565
C 0.9106 2.1234 1.5872
C 0.4312 3.5669 1.6970
O 0.6749 -1.0279 -1.2305
C -0.7098 -0.8135 -1.4978
C -1.1350 -1.4267 -2.8219
C 0.2641 -1.0090 1.2781
C -0.8868 -0.6533 1.9936
C -1.3862 -1.5141 2.9823
C -0.7375 -2.7220 3.2663
C 0.4119 -3.0773 2.5620
C 0.9077 -2.2272 1.5731
Ni 3.5412 0.0385 0.0439
C 5.6912 0.0385 0.0439
N 6.4566 0.9917 0.5806
C 5.9607 2.1732 1.2706
C 6.4971 3.4319 0.5844
C 4.4080 2.1626 1.2813
C 7.7353 0.6088 0.3665
C 7.7142 -0.5943 -0.3165
N 6.4250 -0.9357 -0.5116
C 5.8919 -2.1169 -1.1826
C 4.9562 -2.8361 -0.2211
C 5.1046 -1.7111 -2.4299
H 1.9964 2.1281 1.6584
H 0.4769 1.5564 2.4287
H 0.8649 4.1916 0.8847
H 0.7327 3.9957 2.6752
H -0.6763 3.5996 1.6160
H -0.9856 0.2699 -1.5493
H -1.3207 -1.3134 -0.7174
H -0.6395 -0.9152 -3.6724
H -2.2374 -1.3102 -2.9377
H -0.8936 -2.5081 -2.8319
H -1.3908 0.2811 1.7960
H -2.2718 -1.2419 3.5388
H -1.1189 -3.3806 4.0365
H 0.9260 -4.0048 2.7883
H 1.8156 -2.5115 1.0519
H 6.3445 2.1532 2.3183
H 6.1609 3.4544 -0.4734
H 7.6095 3.4347 0.6035
H 6.1418 4.3442 1.1067
H 3.9728 2.2032 0.2763
H 4.0821 3.0364 1.8935
H 4.0050 1.2402 1.7091
H 8.6158 1.1549 0.6793
H 8.5700 -1.1693 -0.6467
H 6.7320 -2.7824 -1.4875
H 4.0846 -2.1264 -0.0225
H 5.5334 -3.1112 0.6951
H 4.5929 -3.7815 -0.6771
H 4.2497 -1.0545 -2.1460
H 4.7056 -2.6166 -2.9351
H 5.7657 -1.1713 -3.1391
