101
 
C 0.9010 -0.6430 -0.0020
N 0.9062 0.6397 -0.5864
C 1.9677 1.4943 -1.2885
C 1.9042 1.3463 -2.8473
C 1.9544 3.0373 -0.8546
C 3.3650 1.0368 -0.9007
C -0.3413 1.1085 -0.3822
C -1.0898 0.1963 0.3228
N -0.3656 -0.9095 0.6171
C -1.0610 -2.1154 1.3223
C -1.5974 -3.0356 0.0760
C -0.3635 -2.7444 2.7148
C -2.3278 -1.8299 2.1050
Ni 2.6584 -1.8814 -0.0135
C 4.4159 -3.1199 -0.0250
N 4.4377 -4.4871 -0.0788
C 3.3457 -5.5593 -0.0318
C 3.2445 -6.9011 -0.6649
C 4.2365 -7.5824 -1.5312
C 4.4644 -6.7562 -2.7947
C 5.3969 -8.0030 -0.6364
C 2.1104 -7.7697 -0.4640
C 1.0407 -7.4137 0.2835
C 1.1027 -6.2348 0.8769
C 2.2426 -5.3650 0.7614
C 2.2016 -4.2187 1.5727
C 1.1341 -3.5556 0.7721
C 2.0776 -4.7558 3.0289
C 5.8188 -4.8633 -0.3176
C 6.5640 -3.6360 -0.6717
N 5.7281 -2.5738 -0.2231
C 6.2442 -1.2692 0.1604
C 7.3457 -0.6655 -0.5931
C 8.1139 -1.3700 -1.7528
C 8.6005 -0.4556 -2.8655
C 9.3550 -2.2430 -1.3499
C 7.6734 0.6760 -0.3241
C 7.0246 1.4104 0.6459
C 6.0911 0.8169 1.4617
C 5.7013 -0.5238 1.2946
C 4.7620 -1.0655 2.4066
C 5.3761 -0.9360 3.8267
C 3.4321 -0.3202 2.4371
H 0.9715 1.6570 -3.3655
H 2.0744 0.2809 -3.1109
H 2.7251 1.9297 -3.3349
H 1.0941 3.6776 -1.1569
H 2.8372 3.5921 -1.2681
H 2.0616 3.1536 0.2479
H 3.5402 -0.0037 -1.1920
H 3.5098 1.2036 0.1768
H 4.1193 1.6744 -1.4225
H -0.7064 2.0737 -0.7136
H -2.1277 0.3550 0.5785
H -0.8809 -3.2838 -0.7540
H -2.3495 -2.5156 -0.5537
H -1.9909 -4.0392 0.3607
H 0.6960 -2.7008 3.0430
H -0.5131 -3.8496 2.8262
H 0.2760 -2.0827 3.3403
H -3.1043 -1.3564 1.5175
H -2.0949 -1.2075 3.0070
H -2.7230 -2.8342 2.4486
H 3.8603 -8.5705 -1.9032
H 4.5870 -5.6797 -2.5968
H 3.5481 -6.7875 -3.4261
H 5.3293 -7.1575 -3.3506
H 5.9813 -7.2082 -0.2644
H 6.1064 -8.6686 -1.1474
H 5.0037 -8.4655 0.2999
H 2.0234 -8.7657 -0.8721
H 0.1704 -8.0386 0.4556
H 0.2254 -5.9873 1.4711
H 3.0867 -3.6094 1.6887
H 0.2485 -4.0845 0.7853
H 1.2765 -3.2381 -0.2709
H 1.1817 -2.5643 1.2040
H 1.1168 -5.2438 3.1994
H 2.2311 -4.0146 3.8327
H 2.8184 -5.5800 3.1908
H 6.0345 -5.4770 -1.2029
H 6.2297 -5.2897 0.6188
H 6.6160 -3.6197 -1.7783
H 7.5345 -3.7246 -0.1774
H 7.3581 -1.9032 -2.3238
H 9.4254 0.1881 -2.5017
H 7.7537 0.1473 -3.2477
H 9.0049 -1.0834 -3.6912
H 10.2568 -1.6158 -1.1974
H 9.5858 -2.9513 -2.1824
H 9.3119 -2.8448 -0.4279
H 8.4295 1.1992 -0.8809
H 7.2759 2.4518 0.7938
H 5.6736 1.4348 2.2450
H 4.5717 -2.1394 2.2762
H 5.6362 0.1151 4.0789
H 6.2806 -1.5656 3.9434
H 4.6393 -1.2638 4.5979
H 3.5785 0.7637 2.6171
H 2.7532 -0.7046 3.2281
H 2.9470 -0.4652 1.4804
