39
 
C 1.0240 -0.6530 -0.0550
N 0.3044 -0.6742 0.9959
C 0.5276 -1.5808 2.0936
C -0.7984 0.2576 0.8938
C -0.4503 1.0851 -0.3567
N 0.5469 0.2710 -0.9983
C 1.0251 0.4320 -2.3484
Ni 2.7802 -1.8697 -0.2955
N 4.4956 -3.0582 -0.5304
C 4.5174 -4.2398 -1.0205
C 3.3175 -4.9566 -1.5151
C 3.4618 -5.9718 -2.4783
C 2.3405 -6.6145 -3.0053
C 1.0634 -6.2706 -2.5605
C 0.9066 -5.2855 -1.5817
C 2.0262 -4.6241 -1.0634
N 5.8258 -4.7552 -1.0846
C 6.7314 -3.6901 -0.7616
C 5.8123 -2.6261 -0.1418
H 1.4361 -2.2136 1.8935
H -0.3653 -2.2345 2.2104
H 0.6605 -0.9989 3.0302
H -0.9177 0.9118 1.7833
H -1.7228 -0.3378 0.7220
H 0.0556 2.0346 -0.0638
H -1.3443 1.2962 -0.9790
H 0.4882 1.2694 -2.8458
H 0.8103 -0.4984 -2.9168
H 2.1149 0.6304 -2.3572
H 4.4360 -6.2493 -2.8563
H 2.4644 -7.3735 -3.7670
H 0.1969 -6.7684 -2.9755
H -0.0847 -5.0302 -1.2305
H 1.8789 -3.8691 -0.3024
H 6.1036 -5.6653 -1.4772
H 7.1360 -3.3352 -1.7352
H 7.5580 -3.9795 -0.0802
H 6.0692 -1.6168 -0.5256
H 5.8478 -2.6448 0.9694
