99
 
P 1.0471 0.0176 -0.0864
C 0.2181 1.6882 0.4608
C -1.3139 1.9055 0.5416
C 0.7343 2.2260 1.8346
C 0.5241 -0.2143 -1.9180
C 1.0288 -1.4953 -2.6184
C -1.0056 -0.3134 -2.1154
C 0.3006 -1.2024 1.3338
C -1.2295 -1.3544 1.3334
C 0.5899 -2.7422 1.4478
Ni 3.5071 0.0176 -0.0864
C 5.6571 0.0176 -0.0864
N 6.4297 -1.0736 -0.1195
C 6.1382 -2.5721 -0.1892
C 4.8498 -3.2064 -0.3268
C 3.6403 -2.4225 -0.2139
C 2.4225 -3.2784 -0.5693
C 3.6207 -1.8268 1.2604
C 4.6849 -4.6337 -0.5203
C 5.7009 -5.4817 -0.6081
C 6.9156 -4.9739 -0.4219
C 7.1615 -3.5883 -0.1382
C 8.5710 -3.4126 0.2644
C 8.7041 -4.2968 1.5687
C 9.3416 -3.5961 -1.0755
C 7.7923 -0.5546 -0.0384
C 7.7352 0.8876 -0.4175
N 6.3944 1.2482 -0.0794
C 5.9542 2.4977 0.4888
C 4.6963 3.1070 0.0812
C 3.7240 2.6131 -1.0522
C 2.9611 3.7818 -1.7357
C 4.3153 1.8274 -2.2380
C 4.3013 4.2825 0.7699
C 5.0592 4.8606 1.7638
C 6.2740 4.3288 2.1125
C 6.7686 3.1711 1.5015
C 8.1623 2.7093 1.9783
C 9.2685 3.4556 1.1682
C 8.4704 2.8580 3.4736
H 0.5692 2.4190 -0.2950
H -1.7929 1.4642 1.4204
H -1.8798 1.7121 -0.3597
H -1.5201 2.9777 0.7360
H 0.3965 1.5955 2.6862
H 0.3050 3.2420 2.0295
H 1.8304 2.3747 1.8966
H 0.9185 0.6363 -2.5041
H 0.5178 -2.4059 -2.2231
H 2.1298 -1.5662 -2.6057
H 0.7340 -1.5244 -3.6862
H -1.4488 -1.1242 -1.5101
H -1.2685 -0.5639 -3.1647
H -1.5232 0.6204 -1.9539
H 0.6382 -0.7887 2.3026
H -1.5886 -1.8883 0.4321
H -1.7822 -0.4672 1.4636
H -1.5670 -1.9783 2.1979
H 0.1780 -3.3187 0.5723
H 0.1424 -3.3085 2.2864
H 1.6004 -2.9447 1.7258
H 3.6927 -1.6957 -1.0354
H 2.2353 -4.1062 0.1581
H 2.4160 -3.7645 -1.5723
H 1.6563 -2.5634 -0.5884
H 3.6883 -2.6534 2.0011
H 2.7711 -1.1993 1.5338
H 4.4201 -1.1465 1.5101
H 3.7708 -5.1969 -0.6162
H 5.5328 -6.5451 -0.7593
H 7.6910 -5.7261 -0.4369
H 8.8920 -2.4655 0.6687
H 8.2081 -5.2953 1.5735
H 8.1190 -3.7935 2.3830
H 9.7294 -4.4758 1.9088
H 9.2629 -4.6246 -1.4534
H 10.3963 -3.2777 -1.0566
H 8.8556 -2.9689 -1.8798
H 8.5462 -0.9709 -0.7317
H 8.0880 -0.5850 1.0411
H 7.8527 1.0687 -1.5032
H 8.6044 1.3835 -0.0201
H 2.9612 1.9876 -0.5773
H 3.6904 4.5139 -2.1500
H 2.2530 4.2981 -1.0621
H 2.3172 3.4183 -2.5652
H 5.0005 2.4767 -2.8342
H 3.5023 1.4714 -2.9033
H 4.8028 0.9004 -2.0113
H 3.3880 4.8072 0.5675
H 4.7017 5.7515 2.2635
H 6.8231 4.8397 2.8869
H 8.1953 1.6098 1.9288
H 9.2150 4.5498 1.3372
H 9.1890 3.3468 0.0651
H 10.2799 3.0951 1.4567
H 8.5747 3.9155 3.7850
H 9.4488 2.3659 3.6854
H 7.6925 2.3442 4.0740
