50
 
P -1.2807 -0.0482 0.9881
N -1.1675 -1.2681 -0.2947
C -2.3345 -1.1167 -1.1916
C 0.0294 -1.4948 -1.1144
C 1.3210 -1.2863 -0.4082
N 1.9969 0.1103 -0.3719
C 1.3058 1.5048 -0.2530
C -0.0733 1.6683 -0.8891
N -1.3341 1.3755 -0.0854
C -1.7636 2.5021 0.7388
N 0.1268 -0.3335 2.2229
C -0.0809 -1.4654 3.0712
C 1.6504 -0.0577 2.1192
C 2.7246 0.0105 0.8953
Ni -3.3150 0.0143 2.3866
N -4.9854 0.0600 3.5394
C -5.2395 -0.9937 4.3776
C -4.3010 -2.1663 4.4228
C -6.4031 -1.0017 5.1699
C -7.3347 0.0217 5.0089
C -7.0620 1.0744 4.1385
C -5.8538 1.0999 3.4378
H -3.3054 -0.9714 -0.6582
H -2.4406 -2.0080 -1.8437
H -2.1860 -0.2305 -1.8462
H 0.0431 -0.9349 -2.0374
H -0.0247 -2.5845 -1.3610
H 1.9527 -2.1714 -0.1151
H 0.9315 -1.6996 0.5167
H 2.0142 2.3400 0.0318
H 0.9919 1.9114 0.7396
H -0.0080 1.0688 -1.7815
H -0.1048 2.7084 -1.2635
H -1.8122 3.4199 0.1169
H -1.0600 2.6592 1.5831
H -2.7843 2.2880 1.1628
H -1.0055 -1.3009 3.6237
H 0.7808 -1.5100 3.7828
H -0.0619 -2.3612 2.4252
H 1.0105 0.1778 1.4519
H 2.0352 -1.0631 2.2000
H 3.4723 -0.8501 0.8303
H 3.5409 0.7746 0.9976
H -3.4707 -2.0051 3.6624
H -4.8838 -3.0876 4.1631
H -3.9036 -2.3140 5.4571
H -6.6121 -1.8042 5.8714
H -8.2728 0.0027 5.5493
H -7.7862 1.8626 4.0073
H -5.6137 1.9247 2.7913
