38
 
C 1.0240 -0.6530 -0.0550
N 1.0559 0.6173 -0.1009
C 2.2686 1.3975 -0.2543
C 3.5376 0.5182 -0.3632
C -0.2756 1.1658 0.0589
C -1.1922 -0.0673 -0.0709
N -0.2757 -1.1591 0.1119
C -0.6605 -2.5273 0.4054
C 0.5451 -3.4472 0.6248
Ni 2.7802 -1.8697 -0.2955
N 4.4956 -3.0582 -0.5304
C 4.3599 -4.4034 -0.6397
N 5.4615 -5.1953 -0.6719
C 6.7143 -4.6630 -0.6113
O 7.8071 -5.4624 -0.6024
C 7.7388 -6.8398 -0.5570
C 6.8689 -3.2759 -0.5336
C 5.7235 -2.4810 -0.4851
H 2.3615 2.0777 0.6191
H 2.1787 2.0221 -1.1708
H 3.6554 -0.1327 0.5174
H 4.4218 1.1815 -0.4295
H 3.5069 -0.1225 -1.2595
H -0.5472 1.9334 -0.6965
H -0.3361 1.5927 1.0848
H -1.5789 -0.1579 -1.1114
H -2.0327 -0.0376 0.6542
H -1.2933 -2.9246 -0.4141
H -1.2648 -2.5236 1.3421
H 1.1225 -3.5486 -0.3073
H 0.1756 -4.4568 0.9089
H 1.1746 -3.0693 1.4599
H 3.3744 -4.8473 -0.6552
H 8.7646 -7.2612 -0.5598
H 7.1875 -7.2247 -1.4407
H 7.2245 -7.1671 0.3736
H 7.8516 -2.8233 -0.4841
H 5.8085 -1.4066 -0.3923
