49
 
P 0.9950 -0.0252 0.0966
C 0.2895 -0.5878 1.7443
C -1.2217 -0.5759 1.9729
C 0.8529 -1.9664 2.1468
C 0.4619 1.7417 -0.0835
C 0.9571 2.7096 0.9930
C 0.8762 2.2610 -1.4655
C 0.4893 -1.2117 -1.2680
C 0.9640 -2.6548 -1.1142
C -1.0331 -1.2188 -1.5407
Ni 3.4550 -0.0252 0.0966
N 5.5550 -0.0252 0.0966
C 6.2227 -1.2005 -0.0586
C 5.4634 -2.4875 -0.0778
C 7.6166 -1.1949 -0.2033
C 8.2986 0.0230 -0.2092
C 7.5975 1.2126 -0.0154
C 6.2079 1.1697 0.1612
C 5.4327 2.4212 0.4398
H 0.7290 0.1168 2.4806
H -1.7507 -1.3043 1.3423
H -1.6392 0.4402 1.8497
H -1.4209 -0.8973 3.0220
H 0.3562 -2.7915 1.6212
H 0.6528 -2.1772 3.2180
H 1.9531 -2.0179 1.9860
H -0.6498 1.7454 -0.0539
H 2.0618 2.8040 0.9743
H 0.6098 2.4087 1.9997
H 0.5238 3.7178 0.7895
H 1.9818 2.2629 -1.5707
H 0.4981 3.2960 -1.6186
H 0.4373 1.6302 -2.2676
H 0.9703 -0.8151 -2.1857
H 0.3887 -3.2016 -0.3558
H 2.0500 -2.6935 -0.9080
H 0.7545 -3.2108 -2.0534
H -1.6118 -1.6404 -0.7042
H -1.2666 -1.8714 -2.4110
H -1.4200 -0.2050 -1.7728
H 4.3734 -2.2994 0.0175
H 5.7839 -3.1191 0.7787
H 5.6578 -3.0276 -1.0264
H 8.1644 -2.1198 -0.3330
H 9.3712 0.0459 -0.3525
H 8.1314 2.1550 -0.0040
H 6.0980 3.3110 0.4804
H 4.9591 2.3165 1.4408
H 4.6424 2.5854 -0.3189
