60
 
P 1.0828 -0.0496 0.0262
C 0.3737 -0.5228 1.6981
C -1.1382 -0.4967 1.9184
C 0.9389 -1.8759 2.1760
C 0.5509 1.7037 -0.2410
C 1.0493 2.7172 0.7896
C 0.9656 2.1518 -1.6475
C 0.5855 -1.3024 -1.2777
C 1.0616 -2.7363 -1.0524
C -0.9356 -1.3188 -1.5504
Ni 3.5428 -0.0496 0.0262
P 6.0028 -0.0496 0.0262
O 7.0954 1.2402 0.2317
C 6.6351 2.3465 -0.5837
C 5.1067 2.6708 -0.5986
O 6.5944 -1.1479 1.1866
C 6.1897 -0.8106 2.4768
C 6.7948 -1.8596 3.4097
C 6.5423 -0.3463 -1.6945
C 5.6610 -0.5470 -2.7693
C 6.1764 -0.7889 -4.0595
C 7.5595 -0.8107 -4.2833
C 8.4362 -0.5847 -3.2260
C 7.9332 -0.3636 -1.9445
H 0.8104 0.2212 2.3959
H -1.6655 -1.2616 1.3307
H -1.5529 0.5105 1.7291
H -1.3421 -0.7520 2.9844
H 0.4466 -2.7303 1.6930
H 0.7408 -2.0251 3.2580
H 2.0396 -1.9320 2.0192
H -0.5606 1.7108 -0.2115
H 2.1542 2.8022 0.7686
H 0.7005 2.4627 1.8085
H 0.6208 3.7164 0.5403
H 2.0704 2.1479 -1.7541
H 0.5870 3.1768 -1.8545
H 0.5275 1.4791 -2.4153
H 1.0691 -0.9501 -2.2120
H 0.4861 -3.2469 -0.2679
H 2.1477 -2.7638 -0.8413
H 0.8575 -3.3355 -1.9663
H -1.5143 -1.7029 -0.6960
H -1.1701 -2.0053 -2.3934
H -1.3178 -0.3129 -1.8217
H 6.9585 2.2141 -1.6402
H 7.1392 3.2664 -0.2293
H 4.4976 1.8721 -1.0899
H 4.9199 3.5923 -1.1941
H 4.7246 2.8349 0.4286
H 5.0804 -0.8503 2.5613
H 6.5911 0.1841 2.7684
H 6.4191 -2.8730 3.1444
H 6.5356 -1.6445 4.4653
H 7.9036 -1.8694 3.3078
H 4.5897 -0.5249 -2.6138
H 5.5108 -0.9616 -4.8948
H 7.9577 -0.9991 -5.2742
H 9.5076 -0.5840 -3.3951
H 8.6401 -0.1909 -1.1424
