57
 
P -1.2495 -0.0400 0.9897
N -1.1562 -1.2662 -0.3004
C -2.3313 -1.1190 -1.1896
C 0.0352 -1.4884 -1.1281
C 1.3127 -1.2811 -0.3989
N 1.9818 0.1080 -0.3631
C 1.2924 1.4975 -0.2580
C -0.0761 1.6668 -0.9106
N -1.3242 1.3737 -0.0909
C -1.7460 2.5038 0.7355
N 0.1361 -0.3476 2.2402
C -0.0967 -1.4794 3.0817
C 1.6606 -0.0861 2.1452
C 2.7131 0.0107 0.9045
Ni -3.3041 0.0604 2.3325
N -5.0811 0.1265 3.3491
C -5.9568 -0.8335 3.3690
C -5.8029 -2.1617 2.6761
C -4.6008 -2.5159 2.0311
C -4.5196 -3.6944 1.2731
C -5.5987 -4.5767 1.2148
C -6.7600 -4.2963 1.9312
C -6.8734 -3.0895 2.6363
N -7.1225 -0.4679 4.0895
C -6.7981 0.7061 4.8447
C -5.5872 1.2683 4.0797
H -3.2947 -0.9794 -0.6438
H -2.4413 -2.0119 -1.8401
H -2.1954 -0.2347 -1.8498
H 0.0443 -0.9400 -2.0644
H -0.0170 -2.5771 -1.3753
H 1.9783 -2.1624 -0.1970
H 0.9419 -1.6923 0.5311
H 2.0181 2.3362 -0.0605
H 0.9975 1.9153 0.7316
H -0.0235 1.0778 -1.8163
H -0.1054 2.7139 -1.2729
H -1.8069 3.4257 0.1153
H -1.0322 2.6659 1.5721
H -2.7586 2.2736 1.1782
H -1.0268 -1.3137 3.6286
H 0.7476 -1.5343 3.8109
H -0.0752 -2.3720 2.4312
H 1.0399 0.2184 1.4962
H 2.0497 -1.0919 2.2481
H 3.4613 -0.8428 0.8331
H 3.5083 0.7952 1.0026
H -3.7278 -1.8902 2.0939
H -3.6186 -3.9300 0.7229
H -5.5300 -5.4821 0.6214
H -7.5802 -5.0066 1.9166
H -7.8104 -2.8905 3.1321
H -7.9554 -1.0524 4.2562
H -6.4825 0.3512 5.8527
H -7.6330 1.4288 4.9728
H -4.8524 1.7149 4.7767
H -5.9328 2.0142 3.3328
