69
 
P 1.0521 -0.0340 -0.0783
C 0.1244 0.5320 -1.6228
C -1.4063 0.6996 -1.7280
C 0.7783 1.8175 -2.1758
C 0.5159 -1.8019 0.1833
C 0.7660 -2.7656 -0.9806
C 1.1506 -2.3862 1.4531
C 0.5847 1.1796 1.2784
C 0.9161 2.6456 1.0031
C -0.9111 1.0910 1.6736
Ni 3.5121 -0.0340 -0.0783
C 5.6621 -0.0340 -0.0783
N 6.4331 -1.1497 -0.0890
C 5.8982 -2.5216 -0.1108
C 6.3502 -3.2591 -1.3766
C 6.3072 -3.3128 1.1375
C 7.7142 -0.6901 -0.0881
C 7.6998 0.6864 -0.0991
C 8.8982 1.4267 -0.1409
C 10.1160 0.7400 -0.1142
C 10.1349 -0.6631 -0.0863
C 8.9323 -1.3962 -0.0848
N 6.4162 1.1354 -0.0632
C 6.0072 2.5954 0.0060
C 5.9996 3.0858 1.4609
C 7.1299 2.8010 2.2225
C 7.1101 2.8504 3.5958
C 5.9943 3.3319 4.2596
C 4.9206 3.8468 3.5244
C 4.9010 3.7071 2.1178
H 0.3940 -0.2568 -2.3452
H -1.7946 1.5975 -1.2054
H -1.9714 -0.2082 -1.4471
H -1.6387 0.9063 -2.8003
H 0.3757 2.7462 -1.7392
H 0.5661 1.9128 -3.2593
H 1.8804 1.8061 -2.0361
H -0.5847 -1.7733 0.3435
H 1.8489 -2.8926 -1.1777
H 0.2361 -2.4440 -1.8969
H 0.3419 -3.7636 -0.7155
H 2.2548 -2.4531 1.3436
H 0.7554 -3.4119 1.6378
H 0.9029 -1.7747 2.3453
H 1.1622 0.8694 2.1730
H 0.2239 3.0795 0.2644
H 1.9728 2.7667 0.6969
H 0.7332 3.2444 1.9223
H -1.5888 1.3928 0.8619
H -1.1351 1.7853 2.5139
H -1.1982 0.0714 2.0006
H 4.7782 -2.4625 -0.1213
H 7.4531 -3.3451 -1.4238
H 5.9996 -2.7194 -2.2798
H 5.9313 -4.2878 -1.3903
H 7.4058 -3.4364 1.2023
H 5.8547 -4.3284 1.1035
H 5.9443 -2.8033 2.0532
H 8.9161 2.5087 -0.1694
H 11.0453 1.2980 -0.1148
H 11.0886 -1.1756 -0.0738
H 8.9890 -2.4712 -0.0748
H 5.0056 2.7543 -0.4477
H 6.7343 3.2095 -0.5750
H 8.0205 2.4501 1.7902
H 7.9694 2.4648 4.1231
H 5.9834 3.3116 5.3398
H 4.0910 4.2909 4.0634
H 4.0200 4.0439 1.5824
