71
 
C 0.9010 -0.6430 -0.0020
N 0.8417 0.6310 -0.5019
C 1.7923 1.4706 -1.2337
C 3.1710 0.8645 -1.4004
C -0.4226 1.0599 -0.3213
C -1.1388 0.0737 0.2835
N -0.3362 -0.9946 0.4479
C -0.7740 -2.2065 1.1132
C 0.3600 -2.7613 1.9447
Ni 2.6584 -1.8814 -0.0135
C 4.4159 -3.1199 -0.0250
N 4.3780 -4.4315 -0.0051
C 3.2573 -5.3982 0.0391
C 1.9532 -5.2010 -0.5450
C 1.5436 -4.0064 -1.3475
C 0.9641 -6.2254 -0.4661
C 1.2232 -7.4482 0.1591
C 0.2356 -8.5766 0.2456
C 2.4585 -7.6612 0.7085
C 3.4541 -6.6944 0.6514
C 4.7214 -7.1328 1.2788
C 5.7450 -4.8986 -0.0804
C 6.5497 -3.7340 -0.4845
N 5.7553 -2.6196 -0.0970
C 6.3205 -1.3037 0.1215
C 7.5036 -0.9091 -0.5971
C 8.2081 -1.7474 -1.6465
C 8.0235 0.3760 -0.4428
C 7.4252 1.3093 0.3867
C 7.9462 2.7190 0.4019
C 6.3344 0.9289 1.1683
C 5.7845 -0.3697 1.0728
C 4.6803 -0.7118 2.0415
H 1.8729 2.4566 -0.7295
H 1.3698 1.6553 -2.2539
H 3.6225 0.6686 -0.4129
H 3.7765 1.6078 -1.9750
H 3.1287 -0.0836 -1.9670
H -0.8055 2.0278 -0.6248
H -2.1812 0.1318 0.5738
H -1.1431 -2.9331 0.3647
H -1.6373 -1.9649 1.7837
H 1.2460 -2.9824 1.2691
H -0.0114 -3.6672 2.4663
H 0.6218 -1.9916 2.7074
H 2.3602 -3.3054 -1.5495
H 0.7019 -3.4984 -0.8508
H 1.1862 -4.3562 -2.3432
H -0.0094 -6.0874 -0.9244
H -0.7261 -8.3297 -0.2410
H 0.0562 -8.8263 1.3150
H 0.6667 -9.4800 -0.2452
H 2.6567 -8.6201 1.1805
H 4.7206 -8.1291 1.7517
H 4.9361 -6.3951 2.0764
H 5.4401 -7.2608 0.4516
H 5.9074 -5.6766 -0.8604
H 6.1160 -5.1502 0.9293
H 6.5793 -3.7413 -1.5955
H 7.5218 -3.8128 0.0544
H 8.5846 -2.7449 -1.3617
H 9.1483 -1.2844 -1.9943
H 7.4918 -1.8347 -2.4852
H 8.8870 0.6733 -1.0238
H 8.7560 2.8579 -0.3498
H 8.3354 2.9938 1.4002
H 7.1235 3.4097 0.1153
H 5.9099 1.6602 1.8489
H 4.4117 0.1522 2.6916
H 5.0301 -1.5204 2.7205
H 3.7652 -1.0202 1.5314
