63
 
P 1.2750 0.0000 0.0000
N 0.4531 1.5361 -0.2419
C 1.0714 2.5240 0.7078
C 2.6263 2.6607 0.5212
C 0.4959 3.9365 0.5412
C -1.0024 1.4112 -0.2271
C -1.4244 -0.0358 0.0171
C -2.9599 -0.0860 0.0151
C -0.8456 -0.9598 -1.1456
N 0.6484 -0.9357 -1.3634
C 1.2194 -2.3408 -1.3099
C 0.6545 -3.3282 -2.3408
C 2.7627 -2.4348 -1.4186
N 0.6474 -0.3779 1.6100
C 1.2187 -1.6777 2.1197
C 2.7720 -1.7222 2.1677
C 0.6803 -2.1003 3.4949
C -0.8502 -0.4684 1.4355
Ni 3.7350 0.0003 -0.0005
N 5.8350 0.0006 -0.0009
C 6.4696 -1.1927 0.1362
C 7.8565 -1.2394 0.2834
C 8.5875 -0.0434 0.2957
C 10.0696 -0.0549 0.5313
C 7.9117 1.1736 0.1212
C 6.5199 1.1740 -0.0215
H 0.8757 2.2042 1.7570
H 2.8919 2.9767 -0.5057
H 3.2130 1.7627 0.7248
H 3.0280 3.4041 1.2445
H 0.7102 4.3176 -0.4779
H 0.9656 4.6140 1.2887
H -0.5911 3.9814 0.7285
H -1.3784 1.7638 -1.2137
H -1.4585 2.0449 0.5576
H -3.3513 0.2500 -0.9711
H -3.3681 0.5964 0.7930
H -3.3207 -1.1136 0.2147
H -1.3169 -0.6749 -2.1105
H -1.2129 -1.9767 -0.8969
H 0.9236 -2.8093 -0.3858
H 0.9571 -3.0503 -3.3669
H -0.4435 -3.4371 -2.2803
H 1.0670 -4.3416 -2.1106
H 3.1180 -2.2084 -2.4402
H 3.0903 -3.4598 -1.1294
H 3.3230 -1.7963 -0.7577
H 0.8745 -2.5025 1.5107
H 3.1596 -1.0153 2.9291
H 3.2937 -1.5344 1.2052
H 3.0947 -2.7501 2.4434
H 0.9899 -1.3980 4.2897
H 1.0779 -3.1162 3.7303
H -0.4226 -2.2084 3.4974
H -1.3078 0.1759 2.2187
H -1.2269 -1.4975 1.6015
H 5.8890 -2.1056 0.1627
H 8.3482 -2.1953 0.4149
H 10.4476 -1.0867 0.6977
H 10.2931 0.5381 1.4446
H 10.6063 0.3894 -0.3312
H 8.4534 2.1114 0.1285
H 5.9814 2.1078 -0.1147
