62
 
C 0.9010 -0.6430 -0.0020
N -0.3449 -1.1097 0.0238
C -0.6938 -2.5296 0.0359
C 0.6221 -3.3957 0.0059
C -1.4893 -2.8234 1.3199
C -1.5735 -2.8343 -1.1986
C -1.1457 -0.0174 0.0183
C -0.3387 1.1060 -0.0138
N 0.9469 0.6927 -0.0269
C 2.1789 1.4856 -0.0443
C 2.2103 2.3767 1.2105
C 3.4069 0.5222 -0.0426
C 2.1926 2.3713 -1.3057
Ni 2.6584 -1.8814 -0.0135
P 4.6693 -3.2985 -0.0267
N 4.5141 -5.0849 -0.2898
C 3.6382 -5.7943 0.6774
C 3.7707 -5.2656 -1.5872
N 5.4992 -2.9229 -1.5899
C 5.9834 -1.5602 -1.7923
C 6.5726 -3.8835 -1.9549
N 5.4118 -3.1196 1.6056
C 6.6807 -3.8549 1.7357
C 5.6735 -1.7149 1.9850
H 1.2652 -3.2015 0.8766
H 1.2420 -3.1883 -0.8776
H 0.3369 -4.4677 0.0026
H -0.8564 -2.6123 2.2076
H -1.8178 -3.8827 1.3537
H -2.3951 -2.1786 1.3852
H -1.0205 -2.6124 -2.1357
H -2.4981 -2.2117 -1.1991
H -1.8890 -3.8987 -1.2154
H -2.2280 -0.0264 0.0317
H -0.6648 2.1385 -0.0253
H 2.1682 1.7513 2.1280
H 1.3328 3.0608 1.2265
H 3.1314 2.9950 1.2369
H 3.3878 -0.1140 0.8443
H 4.3572 1.0922 -0.0508
H 3.3634 -0.1403 -0.9113
H 1.3345 3.0807 -1.3020
H 2.1095 1.7481 -2.2211
H 3.1274 2.9681 -1.3588
H 4.0799 -5.8755 1.6821
H 3.4835 -6.8517 0.3321
H 2.6058 -5.3695 0.7274
H 4.1546 -4.6894 -2.4483
H 2.7031 -4.9476 -1.5295
H 3.8008 -6.3269 -1.9180
H 5.1913 -0.8275 -1.6326
H 6.2710 -1.4437 -2.8651
H 6.8757 -1.3467 -1.1717
H 6.2327 -4.9333 -2.0333
H 7.4068 -3.8699 -1.2317
H 6.9430 -3.6690 -2.9827
H 6.5634 -4.9162 1.4504
H 7.0041 -3.8420 2.8036
H 7.5009 -3.3845 1.1457
H 4.7413 -1.1418 2.0711
H 6.3925 -1.2090 1.3000
H 6.1202 -1.6702 3.0074
