40
 
C 1.0240 -0.6530 -0.0550
N 0.1836 -0.8240 0.8878
C 0.2635 -1.8994 1.8440
C -0.8846 0.1498 0.8196
C -0.3810 1.1596 -0.2275
N 0.6768 0.4322 -0.8756
C 1.3079 0.7945 -2.1202
Ni 2.7802 -1.8697 -0.2955
N 4.4956 -3.0582 -0.5304
C 4.3260 -4.4072 -0.4726
C 5.4083 -5.2676 -0.6650
C 6.6747 -4.7326 -0.8869
C 6.8433 -3.3443 -0.9237
C 8.1045 -2.7847 -1.1241
C 8.2623 -1.4009 -1.1386
C 7.1585 -0.5394 -0.9491
C 7.3084 0.9501 -0.9346
O 6.3258 1.6413 -0.7087
C 8.6094 1.6735 -1.1811
C 5.8795 -1.1154 -0.7581
C 5.7201 -2.5057 -0.7499
H 1.1741 -2.5258 1.6490
H -0.6454 -2.5330 1.7550
H 0.2997 -1.4770 2.8711
H -1.0963 0.6541 1.7864
H -1.7913 -0.3788 0.4501
H 0.0985 2.0321 0.2732
H -1.1937 1.4961 -0.9040
H 0.8418 1.7175 -2.5297
H 1.1474 -0.0230 -2.8563
H 2.3938 0.9566 -1.9749
H 3.3360 -4.8141 -0.3165
H 5.2665 -6.3404 -0.6472
H 7.5187 -5.3982 -1.0249
H 8.9735 -3.4178 -1.2608
H 9.2642 -1.0405 -1.2897
H 9.4701 1.0215 -1.4009
H 8.8713 2.2769 -0.2874
H 8.4876 2.3502 -2.0518
H 5.0025 -0.4940 -0.5998
