53
 
P -1.3500 0.0010 0.7980
N -1.1832 -1.1819 -0.5242
C -2.3781 -1.1494 -1.3654
C 0.0209 -1.4435 -1.3171
C 1.2504 -1.3117 -0.5145
N 1.7814 0.0803 -0.3033
C 1.1594 1.4577 -0.3075
C -0.1750 1.6833 -1.0259
N -1.4161 1.4385 -0.2149
C -1.7627 2.5446 0.6810
N 0.0132 -0.6268 1.9048
C -0.3679 -1.5623 2.9740
C 1.4391 -0.1010 2.1007
C 2.4887 -0.0389 0.9387
Ni -3.3226 0.0026 2.2679
C -5.0466 0.0040 3.5525
N -5.4233 -1.0169 4.2198
C -4.7970 -2.3117 4.1302
C -6.6001 -0.7207 5.0098
C -6.6992 0.8112 4.9353
N -5.8692 1.1186 3.8018
C -5.8691 2.3680 3.0806
H -3.2962 -1.0782 -0.7412
H -2.4537 -2.0826 -1.9608
H -2.3314 -0.2725 -2.0436
H 0.0905 -0.9119 -2.2782
H -0.0339 -2.5298 -1.5667
H 2.0721 -1.9439 -0.9154
H 1.0559 -1.9196 0.3974
H 1.9429 2.1276 -0.7369
H 1.0470 1.9428 0.6816
H -0.1677 1.1546 -1.9904
H -0.1734 2.7555 -1.3265
H -1.8439 3.4944 0.1119
H -1.0072 2.6705 1.4887
H -2.7564 2.3195 1.1567
H -1.3251 -1.2855 3.4553
H 0.3765 -1.5649 3.8110
H -0.3505 -2.5915 2.5676
H 1.3607 0.9105 2.5132
H 2.0137 -0.7949 2.7590
H 3.1872 -0.9194 0.8799
H 3.2229 0.7905 1.0890
H -3.9159 -2.2704 3.4370
H -5.5402 -3.0508 3.7569
H -4.4655 -2.6285 5.1418
H -6.5351 -1.0611 6.0649
H -7.4706 -1.1937 4.5023
H -6.1995 1.2648 5.8226
H -7.7475 1.1682 4.8605
H -6.6204 3.0614 3.5202
H -6.1643 2.1751 2.0266
H -4.8685 2.8409 3.1085
