66
 
P 1.0902 0.0005 -0.0432
C 0.3844 0.1358 1.6944
C -1.1267 0.2416 1.9062
C 0.9442 -0.9745 2.6074
C 0.5617 1.5564 -0.9069
C 1.0619 2.8709 -0.3030
C 0.9719 1.4897 -2.3832
C 0.5881 -1.6330 -0.8243
C 1.0616 -2.8945 -0.1060
C -0.9332 -1.7546 -1.0775
Ni 3.5502 0.0005 -0.0432
P 6.0102 0.0005 -0.0432
C 6.7751 0.8661 -1.4288
C 7.6054 1.9907 -1.2953
C 7.9765 2.7275 -2.4266
C 7.5176 2.3563 -3.6947
Cl 7.9285 3.3233 -5.0998
C 6.7015 1.2327 -3.8366
C 6.3338 0.4924 -2.7109
C 6.4120 0.9087 1.4734
C 5.3867 1.3938 2.2955
C 5.6918 2.1075 3.4612
C 7.0234 2.3407 3.8188
Cl 7.3941 3.2892 5.2491
C 8.0548 1.8205 3.0321
C 7.7523 1.0960 1.8717
C 6.4244 -1.7482 -0.1865
C 5.3999 -2.6977 -0.2420
C 5.7024 -4.0650 -0.1913
C 7.0318 -4.4909 -0.0902
Cl 7.3975 -6.2041 0.0395
C 8.0643 -3.5475 -0.0649
C 7.7639 -2.1783 -0.1120
H 0.8275 1.0723 2.0928
H -1.6609 -0.6727 1.6088
H -1.5446 1.1327 1.4029
H -1.3202 0.3548 2.9992
H 0.4400 -1.9363 2.4525
H 0.7477 -0.7437 3.6752
H 2.0430 -1.0935 2.4775
H -0.5499 1.5746 -0.8793
H 2.1670 2.9488 -0.3630
H 0.7183 2.9951 0.7414
H 0.6275 3.7173 -0.8873
H 2.0773 1.4494 -2.4838
H 0.5944 2.3829 -2.9291
H 0.5285 0.5965 -2.8726
H 1.0732 -1.6344 -1.8222
H 0.4815 -3.0972 0.8031
H 2.1438 -2.8441 0.1090
H 0.8592 -3.7790 -0.7479
H -1.5156 -1.8039 -0.1433
H -1.1595 -2.7039 -1.6129
H -1.3213 -0.9240 -1.7025
H 7.9326 2.3447 -0.3348
H 8.5923 3.6097 -2.3123
H 6.3239 0.9517 -4.8127
H 5.6551 -0.3436 -2.8377
H 4.3511 1.2206 2.0388
H 4.8918 2.4877 4.0823
H 9.0886 1.9851 3.3158
H 8.5680 0.7009 1.2784
H 4.3688 -2.3733 -0.2811
H 4.9026 -4.7935 -0.2017
H 9.0944 -3.8767 0.0201
H 8.5750 -1.4635 -0.0511
