60
 
P 1.2750 0.0000 0.0000
N 0.4698 1.5339 -0.2423
C 1.1068 2.4971 0.7186
C 2.6674 2.6219 0.5206
C 0.5267 3.9067 0.5921
C -0.9860 1.4148 -0.2341
C -1.4187 -0.0267 0.0224
C -2.9519 -0.0649 0.0198
C -0.8587 -0.9582 -1.1377
N 0.6325 -0.9575 -1.3464
C 1.1719 -2.3746 -1.2712
C 0.6313 -3.3565 -2.3127
C 2.7117 -2.4778 -1.3101
N 0.6651 -0.3635 1.6166
C 1.2499 -1.6624 2.1156
C 2.8048 -1.7051 2.1969
C 0.7125 -2.1135 3.4761
C -0.8357 -0.4565 1.4428
Ni 3.7350 0.0003 -0.0005
N 5.8350 0.0006 -0.0009
C 6.4777 -0.0671 -1.1979
C 7.8703 -0.1772 -1.2444
Cl 8.7008 -0.2949 -2.7851
C 8.5902 -0.2159 -0.0483
C 7.9129 -0.1401 1.1711
C 6.5180 -0.0365 1.1748
H 0.9216 2.1634 1.7654
H 2.9461 2.8997 -0.5123
H 3.2554 1.7296 0.7333
H 3.0792 3.3707 1.2320
H 0.7168 4.3055 -0.4239
H 1.0020 4.5648 1.3515
H -0.5558 3.9380 0.8042
H -1.3535 1.7608 -1.2271
H -1.4443 2.0518 0.5428
H -3.3373 0.2687 -0.9701
H -3.3525 0.6253 0.7937
H -3.3169 -1.0899 0.2232
H -1.3192 -0.6685 -2.1065
H -1.2451 -1.9691 -0.8916
H 0.8166 -2.8550 -0.3731
H 0.9585 -3.0831 -3.3302
H -0.4690 -3.4585 -2.2622
H 1.0311 -4.3722 -2.0637
H 3.1393 -2.1312 -2.2664
H 3.0438 -3.5157 -1.0788
H 3.1850 -1.8892 -0.5611
H 0.9190 -2.4738 1.4927
H 3.1726 -1.0793 3.0324
H 3.3834 -1.4209 1.3063
H 3.1190 -2.7595 2.3627
H 1.0399 -1.4253 4.2760
H 1.1116 -3.1353 3.6839
H -0.3896 -2.2121 3.4850
H -1.2918 0.1933 2.2216
H -1.2118 -1.4848 1.6122
H 5.9009 -0.0565 -2.1133
H 9.6684 -0.3143 -0.0635
H 8.4630 -0.1783 2.1022
H 5.9787 -0.0041 2.1118
