81
 
C 0.9010 -0.6430 -0.0020
N 0.1205 -0.2127 1.0825
C 0.3469 -0.5845 2.4862
C 1.5852 0.2571 2.8563
C 1.1560 1.6360 3.4304
C 0.5276 1.4096 4.8006
C -0.7814 0.6460 4.6185
C -0.5823 -0.6336 3.7832
C -0.7603 0.6813 0.6047
C -0.5934 0.7387 -0.7545
N 0.4098 -0.0963 -1.1288
C 0.7564 -0.3399 -2.5323
C 1.2242 0.9681 -3.1545
C 2.6171 1.3047 -2.6151
C 3.5963 0.2643 -3.1698
C 3.2625 -1.1020 -2.5846
C 1.7770 -1.4746 -2.8111
Ni 2.6584 -1.8814 -0.0135
C 4.4159 -3.1199 -0.0250
N 4.3958 -4.4861 -0.0393
C 3.1911 -5.3237 -0.0500
C 2.3437 -4.9289 -1.2467
C 1.0368 -5.7117 -1.4071
C 0.3041 -5.2608 -2.6759
C 5.7016 -4.8685 -0.0480
C 6.4852 -3.7483 -0.0235
C 7.8851 -3.8132 -0.0140
C 8.4878 -5.0760 -0.0318
C 7.6939 -6.2397 -0.0627
C 6.2821 -6.1498 -0.0710
N 5.6972 -2.6562 -0.0148
C 6.1686 -1.2779 0.0371
C 5.2688 -0.4248 0.9198
C 5.0573 -1.0358 2.3201
C 6.3539 -1.2273 3.0999
H 0.2821 -1.6767 2.3044
H 2.2176 0.4582 1.9643
H 2.1986 -0.2765 3.5981
H 0.4314 2.1766 2.7716
H 2.0437 2.2861 3.5523
H 0.3256 2.3716 5.3210
H 1.2506 0.8368 5.4275
H -1.5244 1.2933 4.1200
H -1.1734 0.3820 5.6347
H -1.5590 -1.1526 3.6815
H 0.0123 -1.2894 4.4720
H -1.4594 1.2624 1.1951
H -1.1764 1.3543 -1.4289
H -0.1964 -0.6792 -3.0028
H 0.5098 1.7778 -2.9128
H 1.2583 0.8725 -4.2595
H 2.6313 1.3057 -1.4954
H 2.9022 2.3136 -2.9595
H 4.6370 0.5314 -2.8915
H 3.5189 0.2478 -4.2777
H 3.5259 -0.9966 -1.5283
H 3.9171 -1.8923 -3.0213
H 1.4758 -2.3651 -2.2518
H 1.6798 -1.7499 -3.8821
H 2.6061 -5.1356 0.8753
H 3.4561 -6.4014 -0.0936
H 2.9580 -5.0730 -2.1689
H 2.0899 -3.8638 -1.0349
H 0.3891 -5.5294 -0.5236
H 1.2409 -6.8017 -1.4887
H 0.0755 -4.1760 -2.6359
H -0.6524 -5.8124 -2.7863
H 0.9280 -5.4592 -3.5756
H 8.5068 -2.9293 0.0045
H 9.5697 -5.1490 -0.0232
H 8.1850 -7.2049 -0.0789
H 5.6918 -7.0542 -0.0940
H 6.2662 -0.8690 -0.9898
H 7.1861 -1.2499 0.4805
H 4.2806 -0.2999 0.4368
H 5.7298 0.5821 0.9968
H 4.5418 -2.0185 2.2661
H 4.4001 -0.3518 2.8825
H 6.9901 -2.0116 2.6358
H 6.1158 -1.5587 4.1317
H 6.9086 -0.2684 3.1404
