82
 
P 1.0173 0.0549 -0.0818
C 0.2395 -1.2400 -1.3537
C -1.3000 -1.3246 -1.4449
C 0.7297 -1.0363 -2.8175
C 0.7304 -2.6777 -1.0527
C 0.5611 -0.5302 1.7350
C 1.1744 -1.8818 2.1671
C 1.0834 0.4580 2.8071
C -0.9723 -0.6101 2.0026
C 0.4995 1.8287 -0.6619
C -1.0408 1.9860 -0.7026
C 0.9952 2.9146 0.3199
C 1.0449 2.2655 -2.0354
Ni 3.4773 0.0549 -0.0818
C 5.6273 0.0549 -0.0818
N 6.4366 -0.9296 -0.5592
C 5.8651 -2.1140 -1.1992
C 6.2356 -3.6279 -0.9947
C 5.0471 -4.4053 -1.6658
C 4.8842 -4.0246 -3.1565
C 4.7738 -2.5115 -3.3496
C 5.9344 -1.8214 -2.6902
C 7.7048 -0.4747 -0.4309
C 7.6564 0.7671 0.2215
N 6.3491 1.0708 0.4418
C 5.6284 1.8781 1.4342
C 5.7295 0.9852 2.6858
C 6.6492 1.5753 3.7477
C 6.0292 2.8743 4.2301
C 5.9888 3.8950 3.0765
C 5.2753 3.3533 1.8314
H -1.7665 -0.4684 -1.9292
H -1.7926 -1.5165 -0.5027
H -1.6012 -2.1766 -2.0910
H 0.2822 -0.1826 -3.3259
H 0.3709 -1.8696 -3.4687
H 1.8350 -1.0206 -2.9026
H 0.2547 -3.0927 -0.1730
H 1.8413 -2.7551 -1.0376
H 0.3713 -3.4005 -1.8215
H 2.2795 -1.8500 2.1320
H 0.8193 -2.7655 1.6579
H 0.8622 -2.1159 3.2115
H 2.1831 0.5758 2.7586
H 0.8258 0.0872 3.8288
H 0.5820 1.4310 2.7911
H -1.4815 -1.3937 1.4443
H -1.4863 0.3611 1.8794
H -1.1838 -0.9105 3.0515
H -1.5211 1.6819 0.2402
H -1.4905 1.4608 -1.5445
H -1.3442 3.0387 -0.8835
H 0.5867 2.7951 1.3234
H 0.6096 3.9164 0.0138
H 2.1004 2.9796 0.3538
H 0.6417 1.7029 -2.8700
H 2.1515 2.2447 -2.0614
H 0.7066 3.3028 -2.2641
H 4.8439 -2.1051 -0.7544
H 6.2984 -3.9529 0.0678
H 7.1941 -3.9273 -1.4900
H 4.1030 -4.1315 -1.1384
H 5.1444 -5.5073 -1.5820
H 3.9703 -4.4877 -3.5861
H 5.7693 -4.3883 -3.7171
H 3.8511 -2.1155 -2.8706
H 4.7648 -2.2457 -4.4244
H 5.8339 -0.7325 -2.8759
H 6.9213 -2.1411 -3.1044
H 8.5915 -1.0202 -0.7400
H 8.5156 1.3255 0.5690
H 4.6478 1.8193 0.9171
H 6.1674 -0.0194 2.4575
H 4.7056 0.8121 3.0433
H 7.6775 1.7521 3.3509
H 6.7254 0.8513 4.5871
H 6.6278 3.2824 5.0698
H 5.0068 2.6440 4.6132
H 7.0153 4.1718 2.7913
H 5.4464 4.8018 3.4391
H 5.2627 4.0880 0.9996
H 4.2048 3.2925 2.1971
