69
 
C 1.0240 -0.6530 -0.0550
N 0.9997 0.6588 -0.1133
C 2.0958 1.6536 -0.1304
C 3.3688 1.4645 -0.7547
C 3.6861 0.2418 -1.5547
C 4.3827 2.4830 -0.6652
C 4.1567 3.6871 0.0256
C 5.1590 4.8072 0.1896
C 2.9408 3.8784 0.6206
C 1.9390 2.9145 0.5664
C 0.7479 3.2885 1.3680
C -0.3867 1.0709 -0.0259
C -1.2137 -0.1543 -0.2178
N -0.3020 -1.2076 0.1366
C -0.7058 -2.5646 0.4757
C 0.1220 -3.6733 0.1770
C 1.3426 -3.6111 -0.6048
C -0.1889 -4.9630 0.5863
C -1.3388 -5.2284 1.2874
C -1.6262 -6.6288 1.7142
C -2.2134 -4.1888 1.5753
C -1.9325 -2.8638 1.1846
C -2.9694 -1.8510 1.5985
Ni 2.7802 -1.8697 -0.2955
N 4.4956 -3.0582 -0.5304
C 5.7258 -2.4747 -0.4776
C 6.8871 -3.1905 -0.7566
C 6.8330 -4.5524 -1.1270
N 8.0156 -5.2865 -1.5459
C 9.3482 -4.6926 -1.5942
C 7.9676 -6.6569 -2.0489
C 5.5550 -5.1463 -1.1057
C 4.4247 -4.3992 -0.8042
H 2.8723 -0.4391 -1.7189
H 4.4121 -0.3396 -1.0485
H 4.0766 0.5967 -2.5452
H 5.3504 2.3563 -1.1390
H 6.1252 4.5993 -0.3042
H 5.3433 4.9802 1.2768
H 4.7396 5.7573 -0.2173
H 2.7780 4.8084 1.1615
H 0.8400 4.2272 1.9438
H 0.6577 2.4924 2.1343
H -0.1031 3.4492 0.6798
H -0.6832 1.8374 -0.7765
H -0.6139 1.3457 1.0141
H -1.4962 -0.3041 -1.2809
H -2.1069 0.0391 0.3816
H 1.3233 -2.7385 -1.2834
H 1.3048 -4.3731 -1.4095
H 2.1154 -3.9660 0.1038
H 0.4887 -5.7755 0.3405
H -0.8117 -7.3202 1.4020
H -2.5706 -6.9637 1.2434
H -1.7062 -6.6638 2.8191
H -3.1204 -4.4211 2.1194
H -3.7903 -2.2878 2.2035
H -3.4785 -1.4543 0.6960
H -2.5051 -1.0594 2.2257
H 5.8494 -1.4427 -0.2097
H 7.7914 -2.6185 -0.6973
H 9.4238 -3.6547 -1.2493
H 9.7143 -4.6966 -2.6432
H 10.0438 -5.2838 -0.9648
H 6.9765 -7.1261 -2.0685
H 8.6208 -7.3070 -1.4319
H 8.3287 -6.6736 -3.0996
H 5.3574 -6.1746 -1.3478
H 3.5115 -4.9479 -0.8868
