37
 
C 0.9010 -0.6430 -0.0020
N -0.3503 -1.1215 0.0489
C -0.7379 -2.5233 0.0456
C -1.1626 -0.0500 0.0382
C -0.3755 1.0843 -0.0145
N 0.9270 0.7114 -0.0479
C 2.0931 1.5814 -0.0918
C 1.9554 2.9863 -0.1243
C 3.0831 3.8161 -0.1841
C 4.3643 3.2647 -0.2201
C 4.5221 1.8858 -0.1710
C 3.4047 1.0606 -0.0917
Ni 2.6584 -1.8814 -0.0135
N 4.3750 -3.0911 -0.0247
C 5.4641 -2.6597 -0.7174
C 6.5534 -3.5279 -0.9172
C 7.6677 -3.1877 -1.8649
C 6.5566 -4.7679 -0.2669
C 5.4569 -5.1557 0.4975
C 4.3405 -4.3191 0.5571
H 0.1699 -3.1693 0.0273
H -1.3407 -2.7297 -0.8667
H -1.3453 -2.7534 0.9435
H -2.2442 -0.0856 0.0569
H -0.7482 2.0983 -0.0287
H 0.9854 3.4571 -0.0996
H 2.9640 4.8903 -0.2060
H 5.2369 3.9013 -0.2744
H 5.5126 1.4461 -0.1865
H 3.6154 0.0402 -0.0129
H 5.4178 -1.7058 -1.2280
H 7.5062 -2.2041 -2.3542
H 7.6891 -3.9559 -2.6740
H 8.6450 -3.1935 -1.3464
H 7.3961 -5.4441 -0.3763
H 5.4561 -6.1107 1.0068
H 3.4649 -4.6207 1.1164
