57
 
C 0.9007 -0.6447 -0.0031
N -0.1916 -0.8744 -0.7443
C -0.4017 -1.9995 -1.6374
C -1.0619 0.1106 -0.4537
C -0.4731 0.9384 0.4780
N 0.7611 0.4609 0.7601
C 1.7521 1.0535 1.6267
C 1.4948 2.2638 2.2940
C 2.4995 2.8858 3.0389
C 3.7495 2.2816 3.1803
C 4.0037 1.0642 2.5656
C 3.0304 0.4828 1.7683
Ni 2.6584 -1.8815 -0.0135
P 4.6693 -3.2984 -0.0267
C 5.7730 -2.9508 -1.4181
C 6.3070 -1.6523 -1.5346
C 6.8777 -1.2196 -2.7397
C 6.9488 -2.0874 -3.8295
C 6.4524 -3.3871 -3.7159
C 5.8449 -3.8083 -2.5278
C 5.7159 -2.7695 1.3720
C 5.3972 -1.7450 2.2589
C 6.2771 -1.4390 3.3189
C 7.4578 -2.1703 3.5173
C 7.7397 -3.2464 2.6984
C 6.8763 -3.5458 1.6588
C 4.1210 -5.0366 -0.1869
C 2.7407 -5.3323 -0.2739
C 2.2993 -6.6258 -0.5031
C 3.2188 -7.6597 -0.5445
C 4.5853 -7.3679 -0.4238
O 5.3925 -8.2792 -0.4349
N 5.0159 -6.0587 -0.2989
H 0.4998 -2.6549 -1.6358
H -0.6049 -1.6350 -2.6645
H -1.2746 -2.5854 -1.2749
H -2.0501 0.2247 -0.8794
H -0.9198 1.8301 0.8934
H 0.5367 2.7535 2.2192
H 2.3101 3.8429 3.4990
H 4.5302 2.7615 3.7486
H 4.9678 0.5834 2.6696
H 3.3413 -0.3588 1.2397
H 6.2164 -0.9443 -0.7277
H 7.2311 -0.2000 -2.8465
H 7.3658 -1.7453 -4.7693
H 6.4944 -4.0539 -4.5664
H 5.3905 -4.7832 -2.5094
H 4.4710 -1.2090 2.1432
H 6.0478 -0.6370 3.9981
H 8.1462 -1.9307 4.3166
H 8.6243 -3.8607 2.8602
H 7.1751 -4.4064 1.1207
H 1.9728 -4.5939 -0.1779
H 1.2379 -6.8206 -0.6271
H 2.8589 -8.6752 -0.6626
H 6.0406 -5.8424 -0.2638
