52
 
C 2.3270 0.0340 0.0000
N 1.5408 1.1226 0.0626
C 2.0531 2.4918 0.0519
C 1.6182 3.2953 1.2716
C 2.0883 2.6822 2.5911
C 1.6051 3.5497 3.7491
C 0.2737 0.6419 0.0262
C 0.3118 -0.7362 -0.0220
C -0.8688 -1.4993 -0.0179
C -2.0968 -0.8221 -0.0015
C -2.1361 0.5845 0.0061
C -0.9453 1.3346 0.0206
N 1.6014 -1.1563 -0.0603
C 2.0313 -2.6194 -0.0540
C 2.7579 -2.9932 1.2355
C 2.2020 -2.4626 2.3941
C 2.9081 -2.4642 3.5840
C 4.1417 -3.1040 3.6759
C 4.6381 -3.8185 2.5807
C 3.9615 -3.7556 1.3419
Ni 4.4769 0.0580 0.0014
N 6.5767 0.0815 0.0028
C 7.1515 0.7241 1.0587
C 8.5422 0.7812 1.1917
Cl 9.2814 1.3916 2.6639
C 9.3385 0.3207 0.1482
C 8.7389 -0.2948 -0.9531
C 7.3434 -0.4867 -0.9706
H 1.6907 3.0040 -0.8670
H 3.1695 2.4665 0.0106
H 0.5162 3.3812 1.2846
H 2.0428 4.3178 1.1732
H 3.1989 2.6194 2.6093
H 1.6715 1.6577 2.7073
H 2.0216 4.5760 3.6568
H 1.9295 3.1143 4.7154
H 0.4950 3.6121 3.7387
H -0.8759 -2.5788 -0.0289
H -3.0212 -1.3874 -0.0037
H -3.0948 1.0875 0.0046
H -0.9999 2.4114 0.0243
H 2.6337 -2.8865 -0.9452
H 1.1385 -3.2796 -0.0813
H 1.2422 -1.9721 2.3481
H 2.4938 -1.9264 4.4200
H 4.6979 -3.0478 4.6028
H 5.5700 -4.3685 2.6969
H 4.4057 -4.2758 0.4974
H 6.5197 1.0689 1.8678
H 10.4164 0.4285 0.2000
H 9.3595 -0.6189 -1.7786
H 6.8797 -0.9457 -1.8323
