81
 
P 1.0571 -0.0499 -0.0652
C 0.2956 1.7482 -0.3323
C -1.2407 1.8755 -0.3329
C 0.8035 2.7950 0.7025
C 0.7721 2.3669 -1.6684
C 0.5829 -1.1556 -1.6138
C 1.1904 -0.6934 -2.9536
C 1.0923 -2.6125 -1.4769
C -0.9528 -1.3069 -1.8292
C 0.5250 -0.6554 1.6964
C -1.0162 -0.7156 1.8393
C 1.0076 -2.0963 1.9709
C 1.0637 0.1733 2.8766
Ni 3.5171 -0.0499 -0.0652
P 5.9771 -0.0499 -0.0652
C 6.6462 0.4209 1.7030
C 6.1493 -0.6028 2.7474
C 8.1722 0.5665 1.9181
C 5.9906 1.7372 2.1972
C 6.4906 -1.8616 -0.4818
C 5.9488 -2.2633 -1.8679
C 8.0327 -2.0528 -0.5585
C 5.9386 -2.9217 0.4828
C 6.4629 1.3322 -1.3347
C 5.9081 2.7180 -0.9908
C 8.0015 1.4686 -1.4955
C 5.9341 1.0457 -2.7624
H -1.7008 1.7488 0.6427
H -1.7349 1.2403 -1.0496
H -1.5440 2.9017 -0.6254
H 0.3774 2.6852 1.6978
H 0.4286 3.8121 0.4366
H 1.9126 2.8651 0.7433
H 0.2863 1.9078 -2.5174
H 1.8822 2.4114 -1.7546
H 0.4000 3.4095 -1.7889
H 2.2962 -0.7002 -2.9134
H 0.8463 0.2497 -3.3428
H 0.8517 -1.3734 -3.7687
H 2.1938 -2.6563 -1.3696
H 0.8151 -3.1998 -2.3854
H 0.5945 -3.1895 -0.6918
H -1.4512 -0.3851 -2.1147
H -1.4706 -1.7971 -0.9853
H -1.1776 -1.9522 -2.7037
H -1.4942 -1.2867 1.0311
H -1.4690 0.2685 1.9293
H -1.3245 -1.2035 2.7868
H 0.5938 -2.8156 1.2664
H 0.6090 -2.4580 2.9482
H 2.1112 -2.1746 2.0100
H 0.6557 1.1757 2.9280
H 2.1707 0.2061 2.8844
H 0.7133 -0.2681 3.8381
H 6.7390 -1.5177 2.7448
H 5.0564 -0.7867 2.6498
H 6.3372 -0.2463 3.7848
H 8.7375 -0.3466 1.7049
H 8.3813 0.7970 2.9846
H 8.6168 1.4186 1.3980
H 4.8882 1.7232 2.0339
H 6.4574 2.6423 1.8103
H 6.1731 1.8957 3.2832
H 6.4675 -1.7482 -2.6823
H 4.8510 -2.1145 -1.9298
H 6.1818 -3.3307 -2.0861
H 8.5090 -1.4058 -1.3119
H 8.2958 -3.0893 -0.8603
H 8.5355 -1.9077 0.4040
H 4.8437 -2.8159 0.6043
H 6.4518 -2.9528 1.4400
H 6.1645 -3.9410 0.0977
H 6.3172 3.1153 -0.0777
H 4.8002 2.7185 -0.9759
H 6.2529 3.4657 -1.7404
H 8.5119 1.7139 -0.5707
H 8.2639 2.3025 -2.1805
H 8.4742 0.5761 -1.9360
H 4.8303 0.9595 -2.7885
H 6.3934 0.1721 -3.2339
H 6.2331 1.8672 -3.4552
