34
 
C 0.9010 -0.6430 -0.0020
N -0.3518 -1.1171 0.0291
C -0.7367 -2.5192 0.0416
C -1.1587 -0.0399 0.0574
C -0.3611 1.0899 0.0669
N 0.9332 0.6993 0.0295
C 2.1037 1.5381 0.0139
C 2.0393 2.8554 0.5133
C 3.1457 3.7031 0.4398
C 4.3143 3.2660 -0.1822
C 4.4032 1.9516 -0.6635
C 3.3193 1.0615 -0.5215
Ni 2.6584 -1.8814 -0.0135
N 4.3750 -3.0911 -0.0247
C 5.5870 -2.4752 -0.0151
C 6.7590 -3.2269 -0.1137
C 6.6686 -4.6147 -0.2433
Cl 8.1254 -5.5743 -0.4290
C 5.4126 -5.2309 -0.2412
C 4.2628 -4.4430 -0.1143
H 0.1772 -3.1613 0.0360
H -1.3576 -2.7447 -0.8503
H -1.3265 -2.7314 0.9592
H -2.2402 -0.0695 0.0749
H -0.7085 2.1147 0.0783
H 1.1372 3.2246 0.9828
H 3.0889 4.7057 0.8498
H 5.1539 3.9466 -0.2751
H 5.3195 1.6334 -1.1435
H 3.4045 0.0227 -0.8530
H 5.6367 -1.3967 0.0604
H 7.7227 -2.7332 -0.1099
H 5.3284 -6.3039 -0.3559
H 3.2830 -4.9007 -0.1414
