70
 
C 1.0240 -0.6530 -0.0550
N 0.2073 -0.4703 1.0248
C 0.0216 -0.8301 2.4924
C -1.4358 -1.3301 2.8717
C 0.9878 -1.7099 3.2581
C -0.8533 0.4580 0.6672
C -0.4043 1.1256 -0.5804
N 0.5316 0.1814 -1.1063
C 0.8833 0.1807 -2.5002
C 2.3473 0.4395 -2.6079
C 0.4671 -1.1337 -3.1736
Ni 2.7802 -1.8697 -0.2955
C 4.5364 -3.0865 -0.5360
N 4.5244 -4.4556 -0.5331
C 3.3352 -5.2927 -0.4145
C 3.3932 -6.1615 0.8496
C 3.5528 -5.3390 2.1266
C 2.4083 -4.3572 2.3040
C 5.8208 -4.8641 -0.6959
C 6.6268 -3.7720 -0.7695
C 8.0197 -3.8750 -0.9836
C 8.5905 -5.1381 -1.0921
C 7.7812 -6.2787 -0.9900
C 6.3822 -6.1576 -0.7993
N 5.8914 -2.6521 -0.6269
C 6.6083 -1.3239 -0.6186
C 6.5517 -0.7804 -2.0039
C 5.2532 -0.7806 -2.3444
C 4.8850 -0.8225 -3.6390
C 5.7122 -0.2758 -4.5865
C 7.0412 0.0329 -4.2402
C 7.5212 -0.3389 -2.9522
H 0.1257 0.1383 3.0377
H -1.6778 -2.3086 2.4106
H -2.2704 -0.6347 2.6268
H -1.5458 -1.4435 3.9794
H 0.7495 -2.7536 3.0380
H 0.7478 -1.6095 4.3524
H 2.0455 -1.4049 3.1622
H -1.0723 1.2303 1.4438
H -1.7718 -0.1451 0.4854
H 0.1696 2.0362 -0.2981
H -1.2780 1.3678 -1.2213
H 0.3416 1.0007 -3.0254
H 2.8388 -0.3676 -2.0278
H 2.6102 1.4157 -2.1545
H 2.6246 0.4653 -3.6807
H 0.9796 -2.0040 -2.7145
H 0.7177 -1.0962 -4.2560
H -0.6335 -1.2772 -3.0899
H 3.2412 -5.9393 -1.3094
H 2.4304 -4.6488 -0.3834
H 4.2427 -6.8673 0.7982
H 2.4627 -6.7649 0.9138
H 4.5104 -4.7766 2.1271
H 3.5743 -6.0436 2.9905
H 2.3634 -3.5340 1.4929
H 2.5617 -3.8991 3.3044
H 1.4506 -4.9304 2.3449
H 8.6794 -3.0255 -1.0856
H 9.6608 -5.2212 -1.2572
H 8.2541 -7.2488 -1.0718
H 5.7928 -7.0571 -0.7465
H 7.6640 -1.3968 -0.2680
H 6.1373 -0.6391 0.1112
H 4.9743 0.2374 -2.0521
H 3.9041 -1.2139 -3.8303
H 5.2914 -0.1424 -5.5663
H 7.6818 0.4576 -5.0000
H 8.5865 -0.2644 -2.7418
