44
 
C -0.2641 -1.1336 -0.0244
N 0.4971 -0.1733 -0.7342
C 1.5232 -0.3921 -1.8175
C 0.0840 1.0711 -0.2141
C 0.4852 2.5596 -0.5057
C -0.8773 0.8288 0.7437
C -1.6162 1.8502 1.5797
N -1.0897 -0.4910 0.8490
C -2.0799 -1.0625 1.7726
Ni -0.4800 -3.3557 -0.0262
P -0.7843 -5.8181 0.0398
C -1.8150 -6.4297 -1.4011
C 0.7731 -6.7172 -0.2465
C -1.7395 -6.3370 1.5009
C -3.0710 -5.6430 1.5297
C -1.9347 -7.8641 1.5259
C -0.9144 -5.9525 2.7311
H 1.6800 -1.4662 -2.0726
H 2.5350 0.0000 -1.5501
H 1.2720 0.1079 -2.7892
H 1.2540 2.6852 -1.2763
H 0.8612 3.1041 0.4110
H -0.3862 3.2120 -0.8135
H -1.3142 2.8864 1.3690
H -1.4268 1.6503 2.6568
H -2.7100 1.7682 1.3981
H -2.5997 -0.2674 2.3558
H -1.6000 -1.7188 2.5142
H -2.8758 -1.5957 1.2269
H -1.3724 -6.1067 -2.3688
H -2.8138 -5.9058 -1.3858
H -2.0201 -7.5107 -1.4445
H 1.2937 -6.4370 -1.1531
H 0.6150 -7.8247 -0.1839
H 1.4035 -6.4808 0.6528
H -3.6641 -5.9471 0.6525
H -2.9040 -4.5519 1.5171
H -3.6177 -5.9293 2.4473
H -2.5217 -8.1912 0.6507
H -2.4829 -8.1613 2.4458
H -0.9595 -8.3973 1.5253
H -0.7386 -4.8605 2.7341
H 0.0718 -6.4685 2.7350
H -1.4501 -6.2322 3.6592
