44
 
C 0.9010 -0.6430 -0.0020
N -0.3685 -1.0576 0.1995
C -0.8430 -2.3973 0.4694
C -1.1439 0.0382 0.1536
C -0.3310 1.1264 -0.0549
N 0.9489 0.6975 -0.1455
C 2.1037 1.5193 -0.3947
C 2.0695 2.8968 -0.0899
C 3.1473 3.7256 -0.3985
C 4.2522 3.2031 -1.0679
C 4.3108 1.8318 -1.3626
C 3.2620 0.9684 -0.9783
Ni 2.6584 -1.8814 -0.0135
N 4.3750 -3.0911 -0.0247
C 4.4017 -4.3785 -0.0020
C 3.1960 -5.2529 -0.0173
C 3.2626 -6.5672 -0.5359
C 2.1137 -7.3643 -0.6168
C 0.8909 -6.8717 -0.1673
C 0.8187 -5.5889 0.3745
C 1.9660 -4.7776 0.4468
N 5.7146 -4.8741 -0.0963
C 6.5890 -3.7714 -0.3754
C 5.7039 -2.5428 -0.1109
H 0.0112 -3.0632 0.5069
H -1.5412 -2.7323 -0.3226
H -1.3517 -2.4206 1.4581
H -2.2196 0.0450 0.2750
H -0.6650 2.1506 -0.1533
H 1.2142 3.3329 0.4090
H 3.1145 4.7774 -0.1341
H 5.0670 3.8649 -1.3420
H 5.1778 1.4505 -1.8859
H 3.3219 -0.1123 -1.1542
H 4.1885 -6.9790 -0.9120
H 2.1664 -8.3627 -1.0349
H -0.0006 -7.4852 -0.2316
H -0.1374 -5.2387 0.7360
H 1.9195 -3.8030 0.8910
H 5.9869 -5.8658 -0.1446
H 6.8403 -3.8479 -1.4562
H 7.5133 -3.7613 0.2385
H 5.8107 -1.7969 -0.9259
H 5.9306 -2.0799 0.8743
