52
 
P 1.0358 0.0528 -0.0770
C 0.2580 1.6752 0.7283
C -1.2827 1.7862 0.8124
C 0.7782 1.9309 2.1728
C 0.7355 2.9459 -0.0159
C 0.5790 0.0417 -1.9821
C 1.1986 1.1875 -2.8118
C 1.0937 -1.2354 -2.6911
C -0.9542 0.0456 -2.2550
C 0.5128 -1.4533 1.0218
C -1.0282 -1.5961 1.1123
C 1.0080 -2.7843 0.4162
C 1.0616 -1.4474 2.4611
Ni 3.4958 0.0528 -0.0770
N 5.5958 0.0528 -0.0770
C 6.2398 -0.9535 0.5732
C 7.6322 -0.9417 0.6830
F 8.2754 -1.9342 1.3461
C 8.3515 0.1141 0.1200
C 7.6730 1.1362 -0.5486
C 6.2778 1.0885 -0.6362
H -1.7395 1.1220 1.5445
H -1.7944 1.6830 -0.1386
H -1.5732 2.7953 1.1775
H 0.3422 1.2749 2.9254
H 0.4323 2.9247 2.5450
H 1.8881 1.9354 2.2322
H 0.2294 3.0735 -0.9690
H 1.8448 2.9996 -0.0907
H 0.4073 3.8724 0.5101
H 2.3037 1.1657 -2.7554
H 0.8386 2.1857 -2.6010
H 0.8967 1.0792 -3.8802
H 2.1927 -1.3402 -2.6018
H 0.8422 -1.2013 -3.7785
H 0.5804 -2.1500 -2.3779
H -1.4481 0.9752 -1.9685
H -1.4738 -0.8268 -1.8201
H -1.1712 -0.0148 -3.3437
H -1.5115 -1.6040 0.1240
H -1.4847 -0.8382 1.7479
H -1.3257 -2.5437 1.6088
H 0.5713 -2.9865 -0.5620
H 0.6481 -3.6460 1.0265
H 2.1131 -2.8392 0.3731
H 0.6439 -0.6675 3.0898
H 2.1680 -1.4040 2.4746
H 0.7363 -2.3722 2.9920
H 5.6658 -1.7525 1.0237
H 9.4299 0.1449 0.2089
H 8.2216 1.9632 -0.9801
H 5.7372 1.8850 -1.1296
