57
 
P 1.0153 0.0952 -0.0267
C 0.2518 0.6168 1.7145
C -1.2844 0.6345 1.8381
C 0.7579 -0.2560 2.9008
C 0.7261 2.0282 2.1362
C 0.5376 1.4697 -1.3425
C 1.1424 2.8631 -1.0765
C 1.0459 1.1286 -2.7660
C -0.9985 1.6593 -1.5229
C 0.4803 -1.7347 -0.3740
C -1.0608 -1.8825 -0.4141
C 0.9623 -2.2139 -1.7607
C 1.0156 -2.7853 0.6157
Ni 3.4753 0.0952 -0.0267
P 5.9353 0.0952 -0.0267
O 7.1365 -0.8812 -0.7212
C 6.5835 -1.2584 -1.9855
O 6.3560 1.4079 -1.0361
C 6.0170 2.6094 -0.4175
O 6.3699 -0.1578 1.6002
C 5.8327 -1.3817 2.0199
H -1.7435 -0.3492 1.8538
H -1.7785 1.2506 1.1060
H -1.5901 1.0733 2.8097
H 0.3344 -1.2577 2.9345
H 0.3788 0.1531 3.8676
H 1.8667 -0.2842 2.9804
H 0.2417 2.8014 1.5585
H 1.8359 2.1211 2.1732
H 0.3489 2.2987 3.1483
H 2.2481 2.8253 -1.0810
H 0.8012 3.3821 -0.1979
H 0.7990 3.5732 -1.8633
H 2.1477 1.0202 -2.7959
H 0.7650 1.9439 -3.4757
H 0.5507 0.2679 -3.2256
H -1.4979 2.0716 -0.6519
H -1.5151 0.7550 -1.8916
H -1.2245 2.4351 -2.2832
H -1.5376 -1.1634 -1.0944
H -1.5141 -1.8323 0.5724
H -1.3706 -2.8893 -0.7621
H 0.5533 -1.6163 -2.5733
H 0.5588 -3.2306 -1.9803
H 2.0655 -2.2702 -1.8314
H 0.6076 -2.6904 1.6149
H 2.1224 -2.7921 0.6500
H 0.6621 -3.7992 0.3172
H 7.2855 -1.9099 -2.5386
H 6.4316 -0.3731 -2.6459
H 5.6100 -1.8133 -1.9168
H 6.5052 3.4262 -0.9934
H 6.4065 2.6900 0.6220
H 4.9217 2.7479 -0.4899
H 6.2820 -1.6210 3.0082
H 6.1209 -2.2210 1.3486
H 4.7286 -1.2993 2.1411
