27
 
N -0.6590 -1.2280 -0.0510
C -1.3553 -0.0953 -0.3339
F -2.6562 -0.1807 -0.7034
C -0.7177 1.1491 -0.2773
C 0.6337 1.2093 0.0739
C 1.3247 0.0346 0.3752
C 0.6521 -1.1868 0.3093
Ni -1.5756 -3.1044 -0.2726
N -2.4923 -4.9807 -0.4941
C -1.8077 -6.1045 -0.1730
O -0.5732 -6.0032 0.3721
C 0.0663 -4.7919 0.5823
C -2.3993 -7.3577 -0.3995
C -3.6751 -7.4191 -0.9768
C -4.3525 -6.2405 -1.2941
C -3.7421 -5.0163 -1.0255
H -1.2577 2.0554 -0.5180
H 1.1467 2.1619 0.1065
H 2.3735 0.0671 0.6416
H 1.1809 -2.1064 0.5180
H 1.0258 -4.9846 1.1003
H -0.5368 -4.1211 1.2132
H 0.2584 -4.2792 -0.3750
H -1.8801 -8.2731 -0.1485
H -4.1396 -8.3753 -1.1835
H -5.3320 -6.2726 -1.7557
H -4.2371 -4.0899 -1.2873
