35
 
N -0.6590 -1.2280 -0.0510
C -1.4263 -0.1223 -0.1012
C -2.8922 -0.3265 -0.2582
C -0.8221 1.1447 -0.0305
C 0.5750 1.2272 0.0608
C 1.3408 0.0592 0.1011
C 0.6938 -1.1750 0.0579
Ni -1.5756 -3.1044 -0.2726
N -2.4923 -4.9807 -0.4941
C -1.6960 -6.0647 -0.3564
C -0.2541 -5.8403 -0.0451
C -2.2354 -7.3512 -0.4829
C -3.6027 -7.4987 -0.7619
C -4.2151 -8.8611 -0.9096
C -4.4010 -6.3549 -0.9058
C -3.8215 -5.0845 -0.7642
C -4.6341 -3.8399 -0.9368
H -3.0941 -1.4401 -0.3275
H -3.2259 0.1764 -1.1899
H -3.4251 0.1192 0.6086
H -1.4125 2.0505 -0.0694
H 1.0681 2.1908 0.0882
H 2.4219 0.1067 0.1496
H 1.2655 -2.0943 0.0625
H -0.0390 -4.7394 0.0011
H 0.3744 -6.3114 -0.8291
H -0.0226 -6.3067 0.9362
H -1.6007 -8.2211 -0.3660
H -3.4627 -9.6642 -0.7587
H -4.6442 -8.9706 -1.9280
H -5.0228 -8.9931 -0.1591
H -5.4573 -6.4553 -1.1278
H -5.6926 -4.0773 -1.1807
H -4.2097 -3.2406 -1.7696
H -4.6072 -3.2381 -0.0066
