20
 
N -0.6603 -1.2278 -0.0510
C -1.4107 -0.0972 -0.0918
Cl -3.1499 -0.2353 -0.2333
C -0.7905 1.1583 -0.0390
C 0.6037 1.2282 0.0286
C 1.3550 0.0530 0.0789
C 0.6963 -1.1793 0.0563
Ni -1.5738 -3.1053 -0.2723
O -2.4714 -4.9352 -0.4890
C -1.8708 -6.0980 -0.4415
N -2.7578 -7.1010 -0.6096
C -3.9436 -6.4771 -0.7796
C -3.7473 -5.1166 -0.6931
H -1.3752 2.0686 -0.0699
H 1.1024 2.1896 0.0372
H 2.4361 0.0967 0.1194
H 1.2654 -2.0992 0.0794
H -0.8152 -6.2397 -0.2536
H -4.8849 -6.9795 -0.9590
H -4.4842 -4.3315 -0.8002
