34
 
N -1.4048 -0.0915 -0.0653
C -0.6259 0.6156 -0.9398
C 0.7619 0.4424 -0.9786
F 1.5422 0.9007 -1.9942
C 1.3695 -0.2007 0.0682
C 0.6002 -0.6475 1.1141
C -0.7827 -0.7261 0.9605
Ni -3.4754 -0.2200 -0.2665
N -5.5193 -0.3212 -0.5017
C -6.2244 0.8240 -0.7041
C -7.6066 0.8140 -0.7992
C -8.2891 -0.3684 -0.7823
C -7.5907 -1.5417 -0.6519
C -8.2462 -2.7400 -0.6862
C -7.4847 -3.8393 -0.9890
C -6.1449 -3.8828 -0.6070
C -5.3908 -5.1409 -0.4397
O -4.2309 -5.1318 -0.0643
C -6.0805 -6.4439 -0.6469
C -5.5353 -2.6682 -0.3356
C -6.2050 -1.4852 -0.4642
H -1.0495 1.2424 -1.6841
H 2.4378 -0.3036 0.0509
H 1.0850 -0.9800 2.0026
H -1.3738 -1.2484 1.7048
H -5.7699 1.7681 -0.6564
H -8.1282 1.7061 -0.9210
H -9.3312 -0.3487 -0.9279
H -9.3305 -2.8156 -0.5633
H -7.9300 -4.6776 -1.4637
H -7.1280 -6.3353 -0.9388
H -6.0962 -7.0595 0.2658
H -5.5927 -7.0111 -1.4499
H -4.5260 -2.6845 -0.0638
