82
 
N -1.3900 -0.1120 -0.0540
C -0.5863 -0.6814 -1.0020
C 0.7982 -0.7450 -0.8306
C 1.3722 -0.2734 0.3509
C 2.8473 -0.4487 0.5919
C 0.5450 0.3243 1.3113
C -0.8360 0.4172 1.0786
Ni -3.4756 -0.2017 -0.2821
C -5.6110 -0.2936 -0.5156
N -6.3805 0.8116 -0.6852
C -6.0371 2.3208 -0.6258
C -6.8113 3.4291 -1.2451
C -8.0142 3.2720 -2.1925
C -8.5660 4.6042 -2.7998
C -7.5716 2.4516 -3.4033
C -6.3703 4.7939 -1.0852
C -5.2604 5.1647 -0.3866
C -4.4864 4.2100 0.1339
C -4.8203 2.8641 -0.0168
C -3.6895 2.0669 0.2906
C -4.1442 1.2166 1.5445
C -3.2878 1.7450 -1.2500
C -7.7602 0.3130 -0.8521
C -7.6369 -1.2012 -1.1112
N -6.3122 -1.5393 -0.6507
C -5.8828 -2.7618 0.0122
C -4.5285 -3.2605 -0.1982
C -3.4500 -2.6691 -1.1785
C -2.5590 -3.8123 -1.7707
C -3.9484 -1.9707 -2.4411
C -4.1326 -4.4093 0.5415
C -4.9529 -5.0462 1.4354
C -6.2281 -4.6095 1.6322
C -6.7616 -3.5039 0.9408
C -8.2566 -3.1950 1.2381
C -8.9826 -4.1294 2.2183
C -8.4830 -1.7721 1.7811
H -1.0123 -1.0797 -1.9097
H 1.4159 -1.1907 -1.6000
H 3.3392 -0.9580 -0.2661
H 2.9956 -1.0945 1.4845
H 3.3491 0.5262 0.7553
H 0.9592 0.6879 2.2448
H -1.4564 0.8376 1.8526
H -8.8464 2.7923 -1.6448
H -7.7742 5.1341 -3.3888
H -8.9409 5.2905 -2.0100
H -9.3904 4.4267 -3.5164
H -6.7668 2.9938 -3.9446
H -8.4319 2.2923 -4.0872
H -7.1650 1.4736 -3.1146
H -6.8341 5.6563 -1.5192
H -4.9435 6.1972 -0.3072
H -3.5591 4.5354 0.6030
H -2.7702 2.5705 0.6702
H -5.2032 0.8900 1.5725
H -4.0050 1.7688 2.4935
H -3.5486 0.3187 1.6061
H -4.0263 1.1057 -1.7555
H -2.3042 1.3194 -1.4419
H -3.2599 2.5672 -1.9934
H -8.4223 0.6731 -1.6498
H -8.3076 0.5422 0.0870
H -7.6653 -1.4755 -2.1864
H -8.5108 -1.7326 -0.7540
H -2.7704 -2.0570 -0.6008
H -3.1958 -4.5883 -2.2590
H -1.9061 -4.3042 -1.0266
H -1.8420 -3.4341 -2.5291
H -4.5108 -2.6957 -3.0737
H -3.0993 -1.5788 -3.0353
H -4.5652 -1.1068 -2.3490
H -3.1684 -4.8728 0.4674
H -4.5985 -5.9108 1.9855
H -6.7817 -5.1870 2.3532
H -8.7923 -3.3958 0.2885
H -8.5070 -4.0488 3.2204
H -8.9529 -5.1781 1.8530
H -10.0499 -3.8378 2.3177
H -8.2046 -1.6442 2.8391
H -9.5487 -1.4710 1.6254
H -7.8168 -1.0652 1.3114
