35
 
N -1.4110 -0.1196 -0.0504
C -0.5326 -0.6542 -0.9906
C 0.8263 -0.8663 -0.7017
C 1.6976 -1.7112 -1.5870
C 1.3387 -0.3025 0.3878
C 0.5385 0.4909 1.1993
C -0.8615 0.4541 1.0586
Ni -3.4741 -0.1913 -0.2729
N -5.5566 -0.2895 -0.5139
C -6.1843 -1.5112 -0.5867
C -5.3976 -2.7862 -0.4942
C -7.5209 -1.5819 -0.7259
C -8.2747 -0.4759 -0.8014
C -9.7605 -0.6094 -0.9575
C -7.6821 0.7683 -0.7353
C -6.3027 0.8710 -0.5835
C -5.6402 2.2266 -0.5227
H -0.8860 -0.9136 -1.9412
H 1.1150 -2.0852 -2.4125
H 2.0888 -2.5501 -1.0279
H 2.5191 -1.1300 -1.9670
H 2.3428 -0.4602 0.6101
H 0.9824 1.1025 1.9203
H -1.4780 0.8650 1.7985
H -4.3522 -2.5537 -0.3795
H -5.5326 -3.3678 -1.3927
H -5.7238 -3.3692 0.3529
H -7.9773 -2.5073 -0.7812
H -10.0413 -1.6504 -0.9901
H -10.0745 -0.1328 -1.8716
H -10.2575 -0.1383 -0.1251
H -8.2747 1.6237 -0.7950
H -6.3801 3.0083 -0.6022
H -4.9348 2.3293 -1.3316
H -5.1186 2.3324 0.4146
