33
 
O 1.0004 -0.0950 -0.0311
C 0.6146 0.5135 -1.2185
C 1.1063 1.9573 -1.2458
C 1.1730 -0.3008 -2.3724
Ni 3.0504 -0.0950 -0.0311
N 5.1504 -0.0950 -0.0311
C 5.8878 -1.1395 -0.0944
C 5.3576 -2.5233 -0.2075
C 6.1550 -3.5381 -0.7704
C 5.6413 -4.8251 -0.9538
C 4.3371 -5.1225 -0.5561
C 3.5461 -4.1344 0.0323
C 4.0484 -2.8406 0.2005
N 7.2566 -0.8097 -0.1213
C 7.3590 0.6132 -0.2869
C 5.9399 1.1061 0.0341
H -0.4980 0.5239 -1.2666
H 2.2148 1.9900 -1.2032
H 0.6944 2.5119 -0.3753
H 0.7610 2.4595 -2.1752
H 2.2943 -0.3897 -2.2335
H 0.8610 0.1700 -3.3362
H 0.7313 -1.3206 -2.3471
H 7.1625 -3.3366 -1.1066
H 6.2527 -5.5898 -1.4155
H 3.9396 -6.1181 -0.7046
H 2.5385 -4.3687 0.3507
H 3.4128 -2.1022 0.6611
H 8.0406 -1.4703 -0.2127
H 7.5902 0.7737 -1.3633
H 8.1266 1.0999 0.3496
H 5.6182 1.8789 -0.6952
H 5.8618 1.4918 1.0740
