26
 
N 1.0588 0.0191 0.0786
C 0.5995 0.7114 -1.1330
C 0.6006 -1.3766 0.0839
C 0.6048 0.7224 1.2853
Ni 3.1588 0.0191 0.0786
N 5.2588 0.0191 0.0786
C 5.2133 -1.4382 -0.1071
N 6.0004 0.5668 -0.9371
C 7.2385 0.6386 -0.5834
C 7.3774 0.3135 0.7626
C 6.0919 0.0714 1.2182
H -0.5125 0.7376 -1.1813
H 0.9879 0.1972 -2.0382
H 0.9846 1.7534 -1.1496
H -0.5114 -1.4323 0.0826
H 0.9860 -1.9042 0.9825
H 0.9902 -1.9106 -0.8093
H -0.5071 0.7524 1.3358
H 0.9954 1.7624 1.2922
H 0.9944 0.2154 2.1938
H 4.5744 -1.6528 -0.9940
H 4.6585 -1.9063 0.7467
H 6.1955 -1.9555 -0.2183
H 8.0414 0.9227 -1.2503
H 8.2887 0.2528 1.3455
H 5.8241 -0.2401 2.2223
