37
 
P 1.0840 -0.0317 -0.0441
O 0.0370 1.1339 -0.7431
C 0.5505 2.3884 -0.2683
C -0.1630 3.5918 -0.8556
O 0.5619 -1.4538 -0.8241
C 0.8127 -1.3904 -2.1943
C 2.3138 -1.3388 -2.4786
O 0.6115 0.2955 1.5773
C -0.8097 0.1532 1.6418
C -1.3448 0.5488 3.0027
Ni 3.5440 -0.0317 -0.0441
N 5.6440 -0.0317 -0.0441
C 6.2871 -0.0415 1.1540
C 7.6796 0.0570 1.2045
F 8.3232 0.0658 2.3980
C 8.3988 0.1670 0.0128
C 7.7202 0.1699 -1.2087
C 6.3248 0.0702 -1.2169
H 1.6425 2.5175 -0.4765
H 0.3829 2.4922 0.8259
H 0.0794 3.7106 -1.9297
H 0.1846 4.5046 -0.3152
H -1.2565 3.4969 -0.7040
H 0.2383 -0.5667 -2.6705
H 0.4089 -2.3350 -2.6230
H 2.7705 -0.3969 -2.1100
H 2.4716 -1.3942 -3.5704
H 2.8032 -2.1958 -1.9700
H -1.1177 -0.8897 1.4157
H -1.3543 0.8465 0.9637
H -0.9447 -0.1293 3.7784
H -2.4563 0.4737 2.9850
H -1.0740 1.6027 3.2300
H 5.7112 -0.1043 2.0681
H 9.4773 0.2584 0.0359
H 8.2690 0.2639 -2.1367
H 5.7821 0.0954 -2.1524
