62
 
P 1.0668 0.0637 0.0384
C 0.1686 1.2760 -0.9715
C 0.6380 -1.4265 -0.8780
C 1.6435 -2.2522 -1.3818
C 1.3124 -3.4620 -2.0050
C -0.0243 -3.8610 -2.1142
C -1.0360 -3.0574 -1.5868
C -0.7098 -1.8443 -0.9693
C 0.5890 0.3784 1.7350
C -0.7689 0.2845 2.0747
C -1.1941 0.5318 3.3778
C -0.2629 0.8794 4.3564
C 1.1015 0.9467 4.0339
C 1.5358 0.6825 2.7202
Ni 3.5268 0.0637 0.0384
P 5.9868 0.0637 0.0384
C 6.7974 -1.4076 0.7322
C 7.6256 -2.2906 -0.0018
C 8.0925 -3.4772 0.5915
C 7.7271 -3.8010 1.9009
C 6.8830 -2.9520 2.6152
C 6.4202 -1.7706 2.0329
C 6.4829 0.2343 -1.6801
C 5.5271 0.3868 -2.6916
C 5.9497 0.6070 -4.0158
C 7.3162 0.6765 -4.3237
C 8.2660 0.5542 -3.3090
C 7.8513 0.3457 -1.9924
C 6.4050 1.3675 1.2419
C 5.3769 2.0959 1.8447
C 5.6771 3.2427 2.5910
C 6.9985 3.6675 2.7259
C 8.0145 2.9209 2.1266
O 9.1721 3.2965 2.2170
N 7.7036 1.7859 1.4039
H -0.9286 1.2138 -0.9177
H 0.5484 1.2327 -2.0154
H 0.4938 2.2725 -0.5821
H 2.6808 -1.9672 -1.2693
H 2.0949 -4.0986 -2.3913
H -0.2744 -4.7995 -2.5938
H -2.0697 -3.3828 -1.6461
H -1.5141 -1.2587 -0.5438
H -1.5050 0.0148 1.3322
H -2.2473 0.4583 3.6219
H -0.6044 1.0881 5.3632
H 1.8123 1.2051 4.8076
H 2.5931 0.7137 2.4546
H 7.8904 -2.1087 -1.0331
H 8.7223 -4.1625 0.0352
H 8.0793 -4.7187 2.3577
H 6.5704 -3.2150 3.6172
H 5.7335 -1.1471 2.5895
H 4.4656 0.3584 -2.4383
H 5.2242 0.7338 -4.8079
H 7.6428 0.8388 -5.3445
H 9.3230 0.6305 -3.5397
H 8.6026 0.2797 -1.2157
H 4.3505 1.8050 1.6895
H 4.8825 3.8268 3.0365
H 7.2259 4.5782 3.2743
H 8.4844 1.2795 0.9293
