63
 
P 1.0258 -0.0154 0.0954
C 0.3740 -0.3250 1.8109
C 0.8586 -1.6887 2.3267
C 0.7744 -1.5484 3.8399
C 1.3567 -0.1758 4.1043
C 1.0650 0.6242 2.8317
C 0.4357 1.6789 -0.3404
C 1.0060 2.7903 0.5043
C 0.6463 4.0230 -0.2924
C 0.9527 3.6273 -1.7273
C 0.7695 2.1056 -1.7790
C 0.5026 -1.4613 -0.9250
C -1.0220 -1.5540 -1.0690
C -1.1820 -2.4373 -2.3005
C -0.1394 -1.8931 -3.2663
C 0.9863 -1.3362 -2.3824
Ni 3.4858 -0.0154 0.0954
N 5.5858 -0.0154 0.0954
C 6.4184 0.5174 -0.8072
N 7.7077 0.3228 -0.4437
C 8.8947 0.7070 -1.1707
C 8.8032 1.3606 -2.4172
C 9.9564 1.6637 -3.1448
C 11.2132 1.3292 -2.6388
C 11.3211 0.7060 -1.3962
C 10.1744 0.3976 -0.6662
C 7.6555 -0.3462 0.7340
C 6.3401 -0.5532 1.0615
H -0.7309 -0.2709 1.9254
H 1.9296 -1.8366 2.0563
H 0.2583 -2.5444 1.9521
H 1.2926 -2.3504 4.4129
H -0.2968 -1.5287 4.1274
H 2.4651 -0.2534 4.2104
H 0.9543 0.2807 5.0354
H 2.0670 0.9260 2.4416
H 0.4837 1.5290 3.0784
H -0.6786 1.7122 -0.2645
H 2.1077 2.6715 0.5594
H 0.5469 2.8572 1.5005
H 1.1882 4.9297 0.0503
H -0.4496 4.1892 -0.1961
H 2.0315 3.8249 -1.9133
H 0.3536 4.2013 -2.4664
H 1.7502 1.6921 -2.0982
H -0.0199 1.7791 -2.4968
H 0.8721 -2.4311 -0.5274
H -1.4572 -0.5568 -1.2997
H -1.5270 -1.9700 -0.1687
H -2.2104 -2.4433 -2.7306
H -0.8959 -3.4742 -2.0313
H -0.5971 -1.0301 -3.8073
H 0.1938 -2.6286 -4.0288
H 1.0944 -0.2891 -2.7034
H 1.9784 -1.8103 -2.5243
H 6.0767 1.0227 -1.6989
H 7.8492 1.6274 -2.8474
H 9.8730 2.1491 -4.1081
H 12.1043 1.5513 -3.2091
H 12.2935 0.4482 -0.9982
H 10.3040 -0.0961 0.2844
H 8.4952 -0.6779 1.3256
H 5.9556 -1.0586 1.9373
