65
 
P 0.9378 -0.0240 -0.0745
C 0.0726 1.6236 -0.1664
C 0.4832 2.4873 1.0314
C 0.0254 3.8736 0.6141
C 0.5220 3.9883 -0.8159
C 0.5817 2.5354 -1.3240
C 0.4939 -0.8989 -1.6483
C 0.9528 -0.2178 -2.9220
C 0.8816 -1.3272 -3.9513
C 1.4508 -2.5278 -3.2168
C 1.1358 -2.2913 -1.7342
C 0.4266 -0.7230 1.5681
C -1.0930 -0.9029 1.6632
C -1.2491 -1.9092 2.7924
C -0.1694 -2.9344 2.4935
C 0.9600 -2.1508 1.8007
Ni 3.3978 -0.0240 -0.0745
C 5.5478 -0.0240 -0.0745
N 6.4543 -0.5315 -0.9830
C 6.2301 -1.2308 -2.2449
C 7.7006 -0.2592 -0.4837
C 9.0607 -0.5943 -1.0785
C 7.5572 0.4023 0.7073
C 8.6873 0.8843 1.5913
N 6.2350 0.5489 0.9569
C 5.6737 1.2085 2.1296
H -1.0346 1.5476 -0.2080
H 1.5959 2.5026 1.1288
H 0.0352 2.1589 1.9891
H 0.3741 4.7029 1.2681
H -1.0860 3.8706 0.5998
H 1.5606 4.3970 -0.8150
H -0.1131 4.6760 -1.4175
H 1.6652 2.3294 -1.5029
H 0.0459 2.4396 -2.2835
H -0.6132 -1.0418 -1.7202
H 2.0046 0.1041 -2.7964
H 0.3010 0.6156 -3.2347
H 1.4281 -1.0819 -4.8884
H -0.1854 -1.5289 -4.1926
H 2.5583 -2.4917 -3.3143
H 1.0928 -3.4955 -3.6299
H 2.1161 -2.2809 -1.2070
H 0.4855 -3.0801 -1.2909
H 0.7487 -0.0996 2.4323
H -1.4782 -1.3651 0.7284
H -1.6425 0.0418 1.8680
H -2.2682 -2.3559 2.8629
H -1.0040 -1.4095 3.7516
H -0.5867 -3.6499 1.7452
H 0.1429 -3.5174 3.3864
H 1.1420 -2.6818 0.8523
H 1.9155 -2.1396 2.3644
H 5.1514 -1.3469 -2.4614
H 6.7120 -2.2338 -2.2017
H 6.7173 -0.6649 -3.0712
H 9.0257 -1.1293 -2.0459
H 9.6414 -1.2196 -0.3618
H 9.6471 0.3419 -1.2261
H 9.6896 0.6452 1.1758
H 8.6224 0.3984 2.5863
H 8.6355 1.9859 1.7080
H 6.4815 1.5806 2.7988
H 5.0610 0.4900 2.7071
H 5.0697 2.0810 1.8136
