87
 
C 1.0240 -0.6530 -0.0550
N 1.0221 0.6769 -0.2247
C 2.1993 1.6897 -0.2689
C 2.2049 3.0891 -0.8208
C 1.1200 3.8530 -1.5501
C 0.7050 3.1604 -2.8394
C 0.0229 4.2009 -0.5831
C 3.3495 3.9551 -0.7148
C 4.4960 3.6049 -0.0889
C 4.5696 2.3689 0.4121
C 3.5133 1.4130 0.3085
C 3.9936 0.1424 0.8594
C 5.1702 -0.2987 -0.1181
C 4.2269 0.2669 2.3701
C -0.4158 1.0093 -0.1395
C -1.1672 -0.2635 -0.4165
N -0.2864 -1.2539 0.0706
C -0.6611 -2.6076 0.4274
C 0.2255 -3.7109 0.1253
C 1.4775 -3.6656 -0.7659
C 1.8639 -4.9907 -1.4514
C 1.4802 -2.6932 -2.0467
C -0.0106 -4.9466 0.7516
C -1.0994 -5.1738 1.5392
C -2.0414 -4.1992 1.7094
C -1.9012 -2.9006 1.1759
C -3.1017 -1.9390 1.4847
C -4.1734 -2.0447 0.3655
C -3.8476 -2.2062 2.8115
Ni 2.7802 -1.8697 -0.2955
N 4.4956 -3.0582 -0.5304
C 5.2406 -3.6723 0.4026
N 6.2785 -4.3404 -0.1626
C 7.3393 -5.0588 0.5105
C 7.4086 -5.0844 1.9182
C 8.4606 -5.7308 2.5694
C 9.4587 -6.3660 1.8314
C 9.4028 -6.3630 0.4377
C 8.3541 -5.7153 -0.2217
C 6.1420 -4.1594 -1.4966
C 5.0578 -3.3507 -1.7161
H 1.4578 4.8693 -1.8864
H 0.4209 2.1121 -2.6556
H 1.5511 3.1767 -3.5674
H -0.1418 3.7147 -3.2920
H -0.3936 3.3382 -0.1717
H -0.7861 4.7716 -1.0717
H 0.4338 4.7103 0.3113
H 3.3892 4.9651 -1.1077
H 5.3503 4.2755 -0.0019
H 5.5278 2.1358 0.8777
H 3.2103 -0.5453 0.9373
H 5.7595 0.5306 -0.5863
H 4.7326 -0.7156 -1.0565
H 5.9591 -0.9316 0.3286
H 5.0664 0.9188 2.6509
H 4.3450 -0.7387 2.8288
H 3.2924 0.7014 2.8108
H -0.8804 1.6182 -0.9267
H -0.6530 1.3267 0.9115
H -1.2083 -0.4225 -1.5181
H -2.2206 -0.2619 -0.1509
H 2.2294 -3.5952 0.0691
H 1.0490 -5.2980 -2.1407
H 2.1327 -5.7951 -0.7519
H 2.7916 -4.8519 -2.0491
H 0.7519 -3.0046 -2.8145
H 2.4956 -2.6835 -2.4928
H 1.3567 -1.6093 -2.0450
H 0.6525 -5.7836 0.6603
H -1.2306 -6.1407 2.0042
H -2.8754 -4.5113 2.3032
H -2.7618 -0.9031 1.6606
H -4.5220 -3.0965 0.2618
H -3.8111 -1.7144 -0.6272
H -5.0681 -1.4260 0.6092
H -4.3493 -3.1931 2.8337
H -4.6824 -1.4823 2.9450
H -3.1498 -2.0887 3.6635
H 5.0443 -3.5892 1.4603
H 6.6648 -4.5964 2.5283
H 8.5033 -5.7306 3.6504
H 10.2763 -6.8583 2.3408
H 10.1780 -6.8568 -0.1343
H 8.3558 -5.7294 -1.3017
H 6.7787 -4.5590 -2.2734
H 4.6934 -3.0228 -2.6789
