74
 
C 0.9010 -0.6430 -0.0020
N -0.3775 -1.1158 -0.2438
C -1.0117 -2.4865 -0.4135
C -2.4372 -2.7199 -0.0202
C -3.3338 -1.7456 0.8187
C -4.8051 -2.1213 1.1441
C -2.6483 -1.5363 2.1769
C -3.0565 -3.9543 -0.3201
C -2.3820 -4.9909 -0.9090
C -1.0419 -4.8750 -1.1619
C -0.3138 -3.6858 -0.9186
C 1.1681 -3.8448 -1.2672
C 1.8695 -4.9797 -0.4349
C 1.4026 -4.0943 -2.7405
C -1.0869 0.0343 -0.2694
C -0.3162 1.1289 0.0425
N 0.9610 0.7519 0.2223
C 2.0928 1.7645 0.3521
C 2.0586 2.9645 1.2097
C 0.8926 3.4581 2.0741
C 1.2852 3.6276 3.5556
C 0.4133 4.8365 1.5432
C 3.1747 3.8567 1.2455
C 4.2948 3.6875 0.4806
C 4.3286 2.6633 -0.4087
C 3.2652 1.7429 -0.5238
C 3.3898 0.9561 -1.7967
C 4.3284 -0.2354 -1.6289
C 2.0439 0.8653 -2.5234
Ni 2.6584 -1.8814 -0.0135
N 4.3750 -3.0911 -0.0247
C 5.0721 -3.5853 -1.0627
O 6.0675 -4.3385 -0.6451
C 6.0061 -4.3800 0.6691
C 4.9653 -3.5752 1.0757
H -3.5235 -0.8195 0.2937
H -4.8929 -3.0041 1.8125
H -5.4134 -2.2681 0.2270
H -5.2739 -1.2629 1.6842
H -2.5562 -2.5172 2.6975
H -3.2380 -0.8550 2.8263
H -1.6384 -1.1075 2.0620
H -4.0910 -4.1584 -0.0869
H -2.8962 -5.9204 -1.1347
H -0.5711 -5.7594 -1.5750
H 1.6394 -2.9157 -1.1710
H 1.4065 -5.9818 -0.5856
H 1.8782 -4.7840 0.6594
H 2.9230 -5.1217 -0.7521
H 0.9616 -5.0516 -3.0738
H 2.4994 -4.1228 -2.9289
H 0.9699 -3.2394 -3.2971
H -2.0984 0.1418 -0.5456
H -0.6934 2.1407 0.0406
H 0.0406 2.7619 2.0315
H 2.1474 4.3149 3.6931
H 1.5423 2.6503 4.0054
H 0.4424 4.0798 4.1211
H 1.1947 5.6236 1.6432
H -0.4635 5.2046 2.1149
H 0.1374 4.7697 0.4703
H 3.1963 4.7467 1.8573
H 5.1135 4.4005 0.5175
H 5.1909 2.6307 -1.0706
H 3.9005 1.6071 -2.5550
H 4.2930 -0.6044 -0.5869
H 5.3825 0.1081 -1.7570
H 4.1176 -1.0363 -2.3581
H 1.4307 0.0529 -2.1641
H 2.1520 0.7022 -3.6097
H 1.4960 1.8360 -2.3921
H 4.8981 -3.3248 -2.0977
H 6.6481 -4.9773 1.3037
H 4.5962 -3.4412 2.0849
