50
 
P 1.0023 0.0763 0.0646
C 0.2258 -1.0658 1.2331
C -1.1505 -1.1095 1.4508
C -1.6835 -1.9723 2.4148
C -0.8471 -2.8011 3.1698
C 0.5319 -2.7720 2.9619
C 1.0699 -1.9062 2.0003
C 0.3657 1.6592 0.6221
C 0.7642 2.2635 1.8148
C 0.1823 3.4791 2.2046
C -0.7984 4.0856 1.4086
C -1.1831 3.4941 0.2055
C -0.5967 2.2911 -0.1915
C 0.6090 -0.7761 -1.4751
C -0.7292 -0.9736 -1.8844
C -1.0147 -1.5485 -3.1269
C 0.0280 -1.9143 -3.9784
C 1.3556 -1.6948 -3.5911
C 1.6474 -1.1279 -2.3414
Ni 3.4623 0.0763 0.0646
N 5.5623 0.0763 0.0646
C 6.2715 -0.8677 -0.6247
O 5.6036 -1.7843 -1.3729
C 6.2061 -2.7167 -2.1989
C 7.6813 -0.8719 -0.5324
C 8.3240 0.0601 0.2773
C 7.5748 1.0056 0.9711
C 6.1841 1.0075 0.8387
H -1.8061 -0.4594 0.8989
H -2.7492 -1.9872 2.5846
H -1.2677 -3.4587 3.9210
H 1.1782 -3.4132 3.5546
H 2.1480 -1.8943 1.8678
H 1.5160 1.7969 2.4343
H 0.4831 3.9490 3.1296
H -1.2610 5.0133 1.7216
H -1.9406 3.9616 -0.4145
H -0.9153 1.8450 -1.1271
H -1.5625 -0.6643 -1.2725
H -2.0439 -1.6954 -3.4381
H -0.1947 -2.3534 -4.9437
H 2.1577 -1.9543 -4.2673
H 2.6774 -0.9364 -2.0481
H 5.4352 -3.3752 -2.6453
H 6.9118 -3.3537 -1.6224
H 6.7548 -2.2013 -3.0179
H 8.2881 -1.5953 -1.0597
H 9.4028 0.0409 0.3707
H 8.0686 1.7207 1.6158
H 5.5916 1.7258 1.3891
