56
 
P 0.9149 -0.0382 0.0360
C 0.1195 0.0194 -1.5798
C -1.2587 -0.0094 -1.8075
C -1.7440 -0.0091 -3.1247
C -0.8598 0.0220 -4.2115
F -1.3339 -0.0179 -5.4815
C 0.5141 0.0903 -3.9881
C 0.9998 0.0963 -2.6804
C 0.4783 -1.7594 0.3515
C 0.7947 -2.8231 -0.4996
C 0.4111 -4.1290 -0.1530
C -0.2751 -4.3767 1.0438
F -0.6302 -5.6415 1.3815
C -0.5933 -3.3193 1.8941
C -0.2248 -2.0191 1.5471
C 0.4519 1.3283 1.1053
C -0.9055 1.5580 1.4108
C -1.2773 2.6004 2.2623
C -0.2968 3.4159 2.8266
F -0.6652 4.4357 3.6445
C 1.0610 3.1714 2.5549
C 1.4442 2.1198 1.6931
Pd 3.3749 -0.0382 0.0360
P 5.8349 -0.0382 0.0360
N 6.7213 -0.9808 1.2487
C 8.1655 -0.9267 1.1516
C 8.5687 -0.0348 -0.0061
C 10.0971 0.0095 -0.0638
C 7.9653 -0.6822 -1.3281
N 6.4961 -0.9372 -1.3027
N 6.5208 1.4815 0.5338
C 7.9873 1.4156 0.2851
H -1.9522 -0.0428 -0.9855
H -2.8082 -0.0462 -3.3053
H 1.2039 0.1265 -4.8252
H 2.0746 0.1437 -2.5299
H 1.3256 -2.6428 -1.4224
H 0.6484 -4.9534 -0.8096
H -1.1227 -3.5049 2.8231
H -0.4846 -1.2154 2.2271
H -1.6851 0.9291 1.0065
H -2.3261 2.7727 2.4867
H 1.8067 3.8010 3.0200
H 2.5015 1.8876 1.4712
H 6.3909 -1.9725 1.1799
H 8.5698 -1.9576 1.0229
H 8.5531 -0.5344 2.1163
H 10.5016 -1.0179 -0.1990
H 10.4941 0.4067 0.8973
H 10.4414 0.6540 -0.8945
H 8.4683 -1.6551 -1.5265
H 8.2015 -0.0204 -2.1882
H 6.2444 -1.9486 -1.2376
H 6.2576 1.7285 1.5133
H 8.4946 1.8429 1.1782
H 8.2380 2.0758 -0.5724
