74
 
P 1.0717 0.0142 0.0682
C 0.3152 -1.6601 -0.1428
C -1.2038 -1.7423 -0.1198
C 0.8787 -2.2908 -1.4273
C 0.5098 0.6456 1.6996
C 1.0055 -0.1804 2.8817
C 0.9177 2.1176 1.8479
C 0.6125 0.9010 -1.4531
Pd 3.5317 0.0142 0.0682
P 5.9917 0.0142 0.0682
N 6.8086 -1.5223 -0.1846
C 6.1902 -2.5085 0.7676
C 4.6336 -2.6425 0.5866
C 6.7604 -3.9228 0.5994
C 8.2651 -1.4002 -0.1696
C 8.6913 0.0451 0.0792
C 10.2265 0.0930 0.0754
C 8.1089 0.9766 -1.0773
N 6.6137 0.9546 -1.2921
C 6.0397 2.3585 -1.2338
C 6.6021 3.3482 -2.2631
C 4.4953 2.4540 -1.3398
N 6.6307 0.3816 1.6803
C 6.0754 1.6864 2.1918
C 4.5331 1.7370 2.2412
C 6.6077 2.1127 3.5669
C 8.1260 0.4700 1.5013
H 0.6961 -2.2886 0.6919
H -1.6526 -1.1208 -0.9170
H -1.5880 -1.4472 0.8766
H -1.5009 -2.8037 -0.2889
H 0.5230 -1.7570 -2.3311
H 0.5655 -3.3522 -1.5157
H 1.9926 -2.2678 -1.4112
H -0.6001 0.6167 1.6955
H 2.1067 -0.1189 2.9796
H 0.7002 -1.2390 2.7745
H 0.5403 0.2114 3.8138
H 2.0095 2.2322 1.8181
H 0.5517 2.5380 2.8084
H 0.4972 2.7292 1.0214
H -0.4973 0.9447 -1.5091
H 1.0220 0.4335 -2.3650
H 0.9839 1.9441 -1.3792
H 6.3924 -2.1898 1.8164
H 4.3640 -2.9626 -0.4374
H 4.0442 -1.7467 0.7830
H 4.2321 -3.3776 1.3177
H 6.5386 -4.3035 -0.4181
H 6.2928 -4.5985 1.3501
H 7.8484 -3.9717 0.7798
H 8.6401 -1.7501 -1.1573
H 8.7208 -2.0374 0.6130
H 10.6163 -0.2406 -0.9118
H 10.6337 -0.5921 0.8516
H 10.5884 1.1195 0.2789
H 8.5777 0.6949 -2.0445
H 8.4770 1.9926 -0.8259
H 6.3361 2.8268 -0.3108
H 6.2977 3.0733 -3.2895
H 7.7001 3.4572 -2.2041
H 6.1900 4.3612 -2.0297
H 4.1366 2.2254 -2.3587
H 4.1703 3.4788 -1.0501
H 3.9264 1.8234 -0.6782
H 6.4236 2.5065 1.5797
H 4.1446 1.0427 3.0121
H 4.0279 1.5273 1.2772
H 4.2148 2.7712 2.4989
H 6.2887 1.4168 4.3638
H 6.2081 3.1304 3.7941
H 7.7098 2.2198 3.5728
H 8.5844 -0.1776 2.2808
H 8.5063 1.4975 1.6715
