59
 
P 0.9558 -0.0035 -0.0896
C 0.0469 0.0351 1.5860
C 0.7542 0.2657 2.8335
C 2.2339 0.3978 2.9870
C 0.0765 0.3559 4.0666
C -1.2805 0.1384 4.1486
C -1.9876 -0.1691 2.9913
C -1.3469 -0.2021 1.7259
C 0.6021 1.8259 -0.4578
C 1.4904 2.9035 -0.1555
C 2.7332 2.7203 0.6018
C 1.2127 4.2299 -0.5361
C 0.0483 4.5492 -1.2090
C -0.8520 3.5372 -1.5248
C -0.5816 2.1926 -1.1671
C 0.6470 -1.6129 -1.1607
C 1.5766 -2.1516 -2.1423
C 2.9156 -1.5884 -2.4554
C 1.2714 -3.2981 -2.9324
C 0.0656 -3.9581 -2.8200
C -0.8635 -3.4872 -1.9092
C -0.5893 -2.3500 -1.0971
Pd 3.4158 -0.0035 -0.0896
N 5.5158 -0.0035 -0.0896
C 6.1609 1.0740 0.4184
C 7.5434 1.1714 0.3098
C 8.2721 0.1292 -0.2944
O 9.6207 0.1902 -0.4438
C 10.3917 1.2903 -0.1202
C 7.5799 -0.9949 -0.7670
C 6.1864 -1.0330 -0.6688
H 2.7698 0.0356 2.0983
H 2.5834 -0.2606 3.8125
H 2.4754 1.4465 3.2727
H 0.6162 0.5663 4.9901
H -1.7662 0.1879 5.1219
H -3.0452 -0.3761 3.0950
H -1.9586 -0.4365 0.8752
H 2.6781 1.7623 1.0147
H 2.7182 3.3939 1.4809
H 3.6161 2.9106 -0.0385
H 1.9049 5.0305 -0.2918
H -0.1455 5.5858 -1.4776
H -1.7561 3.8143 -2.0580
H -1.3089 1.4498 -1.4640
H 3.1546 -0.7375 -1.8560
H 2.9290 -1.2971 -3.5347
H 3.6875 -2.3683 -2.3082
H 1.9778 -3.6938 -3.6632
H -0.1446 -4.8308 -3.4456
H -1.8071 -4.0246 -1.8526
H -1.3856 -2.0789 -0.4342
H 5.5966 1.8849 0.8551
H 8.0271 2.0636 0.6793
H 11.4586 1.0761 -0.3259
H 10.2803 1.5298 0.9586
H 10.0794 2.1664 -0.7315
H 8.1070 -1.8205 -1.2304
H 5.6351 -1.8782 -1.0563
