36
 
P 1.2241 -0.2554 -0.0892
Cl -0.5039 -0.9147 0.8322
Cl 0.7117 1.7652 -0.1310
Cl 0.9306 -1.3052 -1.8611
Pd 3.6047 -0.1102 -0.2344
P 5.9804 -0.0236 0.1093
C 6.7479 -0.2058 1.8060
C 6.2547 0.8663 2.8146
C 6.3180 -1.5511 2.4316
C 6.4785 -1.5849 -0.8138
C 6.0106 -1.5864 -2.2902
C 8.0042 -1.7695 -0.8242
C 6.5179 1.5779 -0.6895
C 5.9666 2.8198 -0.0169
C 8.0514 1.7509 -0.8178
H 7.8486 -0.1667 1.7328
H 5.1428 0.8749 2.9227
H 6.5992 1.8730 2.5855
H 6.6766 0.6753 3.8245
H 5.2154 -1.6002 2.6011
H 6.8030 -1.6819 3.4237
H 6.6164 -2.4092 1.8073
H 6.0260 -2.4705 -0.3285
H 6.4563 -0.7503 -2.8751
H 4.9067 -1.5490 -2.3753
H 6.3405 -2.5266 -2.7947
H 8.5112 -0.9602 -1.3520
H 8.2932 -2.6759 -1.3929
H 8.4141 -1.8382 0.1994
H 6.1001 1.5519 -1.7190
H 6.4574 3.0028 0.9420
H 4.8666 2.7473 0.0890
H 6.2351 3.7092 -0.6252
H 8.5528 1.7310 0.1735
H 8.2951 2.7151 -1.3107
H 8.5252 1.0317 -1.4930
