69
 
P 1.0929 -0.0369 0.0042
C 0.3006 -0.5965 1.5307
C -1.0787 -0.5659 1.7342
C -1.6195 -1.0056 2.9480
C -0.7894 -1.4910 3.9645
F -1.3251 -1.9073 5.1393
C 0.5909 -1.5451 3.7683
C 1.1367 -1.0963 2.5588
C 0.4622 1.6455 0.0844
C 0.8461 2.5615 1.0597
C 0.2443 3.8277 1.0971
C -0.7392 4.1797 0.1621
F -1.3445 5.3915 0.2299
C -1.1016 3.2793 -0.8390
C -0.4983 2.0204 -0.8838
C 0.6823 -1.2726 -1.2293
C -0.6578 -1.5676 -1.5592
C -0.9550 -2.5199 -2.5372
C 0.0815 -3.1726 -3.2051
F -0.2155 -4.1085 -4.1444
C 1.4200 -2.8554 -2.9054
C 1.7262 -1.8991 -1.9085
Pd 3.5529 -0.0369 0.0042
P 6.0129 -0.0369 0.0042
O 7.1849 0.0271 1.2445
C 6.6057 -0.7284 2.3375
C 6.7852 -2.2457 2.1310
C 7.2249 -0.3590 3.6924
O 6.4689 -1.5249 -0.6968
C 5.9305 -1.6803 -1.9859
C 6.4831 -0.6355 -2.9608
C 6.3306 -3.0749 -2.4788
O 6.4663 1.4980 -0.6423
C 5.9629 2.6123 0.0457
C 6.4772 3.8870 -0.6466
C 4.4458 2.6569 -0.0009
H -1.7306 -0.1907 0.9649
H -2.6873 -0.9659 3.0997
H 1.2331 -1.9318 4.5548
H 2.2144 -1.1490 2.4312
H 1.5957 2.2888 1.7864
H 0.5303 4.5328 1.8621
H -1.8585 3.5506 -1.5695
H -0.8088 1.3335 -1.6647
H -1.4819 -1.0644 -1.0761
H -1.9896 -2.7494 -2.7780
H 2.2067 -3.3589 -3.4502
H 2.7565 -1.6040 -1.6224
H 5.5117 -0.5184 2.4849
H 7.8511 -2.4655 1.9187
H 6.1516 -2.6217 1.3076
H 6.4555 -2.8249 3.0195
H 8.3170 -0.5397 3.6907
H 6.7743 -0.9924 4.4973
H 7.0086 0.6948 3.9617
H 4.8255 -1.6431 -1.9568
H 7.5917 -0.6227 -2.8942
H 6.0859 0.3681 -2.7235
H 6.1614 -0.8549 -3.9972
H 7.4379 -3.1782 -2.4760
H 5.9593 -3.2450 -3.5121
H 5.9030 -3.8629 -1.8221
H 6.3391 2.6154 1.0890
H 6.1616 3.9276 -1.7148
H 7.5840 3.9615 -0.6072
H 6.0568 4.7780 -0.1328
H 4.0786 2.5843 -1.0509
H 4.0665 3.5700 0.4878
H 4.0742 1.8560 0.6096
