44
 
P 0.9200 0.0507 0.0321
C 0.1872 1.3349 1.0923
C -1.1708 1.6728 1.2029
C -1.5749 2.6788 2.0982
C -0.6399 3.3342 2.9082
Cl -1.1541 4.5887 4.0248
C 0.7058 2.9823 2.8319
C 1.1140 1.9979 1.9285
C 0.4793 0.5873 -1.6325
C 1.4816 0.7746 -2.5870
C 1.1468 1.0897 -3.9099
C -0.1939 1.2142 -4.2915
Cl -0.6049 1.6468 -5.9417
C -1.2049 0.9798 -3.3580
C -0.8722 0.6560 -2.0388
C 0.4410 -1.5265 0.7413
C -0.9220 -1.8644 0.8031
C -1.3279 -3.0899 1.3334
C -0.3732 -3.9947 1.8020
Cl -0.8952 -5.5244 2.4913
C 0.9929 -3.6768 1.7181
C 1.4079 -2.4395 1.1828
Pd 3.3800 0.0507 0.0321
O 5.4300 0.0507 0.0321
C 6.1869 1.0553 -0.3321
C 7.5073 0.6752 -0.1865
C 7.4881 -0.6258 0.2814
C 6.1588 -0.9707 0.4060
H -1.9244 1.1822 0.6195
H -2.6194 2.9482 2.1703
H 1.4353 3.4687 3.4723
H 2.1676 1.7391 1.9003
H 2.5195 0.6466 -2.3118
H 1.9306 1.2288 -4.6409
H -2.2468 1.0367 -3.6569
H -1.6817 0.4367 -1.3623
H -1.6767 -1.1848 0.4336
H -2.3845 -3.3327 1.3789
H 1.7230 -4.3936 2.0700
H 2.4707 -2.1752 1.1000
H 5.8226 2.0142 -0.6747
H 8.3838 1.2737 -0.3954
H 8.3429 -1.2497 0.5065
H 5.7637 -1.9193 0.7446
