55
 
P 0.9491 0.0837 -0.0201
C 0.0513 -0.7942 1.2919
C 0.4763 1.7445 0.5381
C 0.5212 -0.6684 -1.5714
C -0.8252 -0.7212 -1.9780
C -1.1697 -1.3222 -3.1899
C -0.1703 -1.8716 -3.9961
C 1.1796 -1.7890 -3.6035
C 1.5383 -1.1708 -2.3855
Pd 3.4091 0.0837 -0.0201
P 5.8691 0.0837 -0.0201
C 6.5629 -1.4640 -0.6775
C 7.3626 -1.6180 -1.8218
C 7.6330 -2.9122 -2.3138
C 7.1236 -4.0471 -1.6694
C 6.3669 -3.9027 -0.5112
C 6.0907 -2.6247 -0.0215
C 6.2684 1.3692 -1.2668
C 7.0012 2.4934 -0.8102
C 7.3342 3.5482 -1.6684
C 6.9461 3.5035 -3.0036
C 6.2158 2.4071 -3.4764
C 5.8693 1.3441 -2.6151
C 6.3762 0.3365 1.7104
C 5.4154 0.4699 2.7216
C 5.8292 0.7644 4.0316
C 7.1854 0.9225 4.3258
C 8.1236 0.7600 3.3057
O 9.3119 0.8936 3.5488
N 7.7045 0.4678 2.0253
H -1.0459 -0.7404 1.2163
H 0.4195 -0.4392 2.2803
H 0.3774 -1.8592 1.2184
H -0.6366 1.8066 0.5159
H 0.8387 2.4625 -0.2310
H 0.8642 2.0164 1.5333
H -1.6085 -0.2925 -1.3623
H -2.2096 -1.3652 -3.5006
H -0.4481 -2.3522 -4.9283
H 1.9364 -2.2074 -4.2512
H 2.5911 -1.0611 -2.0352
H 7.7402 -0.7643 -2.3603
H 8.2144 -3.0443 -3.2157
H 7.3040 -5.0397 -2.0691
H 5.9673 -4.7791 -0.0095
H 5.4582 -2.5467 0.8564
H 7.3173 2.5731 0.2220
H 7.8916 4.4039 -1.2983
H 7.2085 4.3228 -3.6667
H 5.9167 2.3923 -4.5161
H 5.2933 0.5192 -3.0040
H 4.3582 0.3716 2.4857
H 5.1013 0.8896 4.8228
H 7.5021 1.1742 5.3350
H 8.4278 0.3704 1.2766
