64
 
P 1.0646 -0.0725 0.0239
C 0.3036 -1.2534 1.1678
C -1.0720 -1.3386 1.3758
C -1.5924 -2.2813 2.2704
C -0.7450 -3.1565 2.9585
F -1.2606 -4.0542 3.8355
C 0.6319 -3.1026 2.7427
C 1.1567 -2.1578 1.8507
C 0.4254 1.4715 0.6900
C 0.8247 2.0388 1.8993
C 0.2455 3.2470 2.3231
C -0.7342 3.8817 1.5461
F -1.3105 5.0326 1.9744
C -1.1191 3.3291 0.3263
C -0.5348 2.1378 -0.1040
C 0.6720 -0.7987 -1.5677
C -0.6683 -1.0019 -1.9724
C -0.9574 -1.5271 -3.2335
C 0.0856 -1.8407 -4.1049
F -0.2001 -2.3463 -5.3332
C 1.4208 -1.6253 -3.7116
C 1.7253 -1.1081 -2.4315
Pd 3.5246 -0.0725 0.0239
C 5.6746 -0.0725 0.0239
N 6.3708 0.1198 1.0815
C 5.8204 0.3892 2.4031
C 4.2785 0.5612 2.3492
C 6.2157 -0.7494 3.3757
C 7.7889 0.0160 0.7879
C 7.8310 -0.5614 -0.6327
N 6.4858 -0.3444 -1.1012
C 6.0759 -0.2974 -2.4987
C 6.9264 0.7334 -3.2775
C 6.2118 -1.6706 -3.1458
H -1.7378 -0.6702 0.8599
H -2.6580 -2.3266 2.4343
H 1.2874 -3.7902 3.2707
H 2.2312 -2.1482 1.6957
H 1.5781 1.5574 2.5009
H 0.5503 3.6915 3.2587
H -1.8720 3.8187 -0.2841
H -0.8512 1.7309 -1.0588
H -1.5013 -0.7459 -1.3340
H -1.9903 -1.6796 -3.5383
H 2.2120 -1.8575 -4.4086
H 2.7666 -0.9190 -2.0732
H 6.2619 1.3361 2.7890
H 3.7846 -0.3332 1.9841
H 3.9992 1.3848 1.6822
H 3.9140 0.7636 3.3788
H 5.8132 -1.7283 3.0354
H 5.8309 -0.5478 4.3969
H 7.3202 -0.8514 3.4677
H 8.3557 -0.6517 1.4670
H 8.2142 1.0446 0.8154
H 7.9932 -1.6632 -0.6122
H 8.6252 -0.0674 -1.2251
H 5.0106 0.0167 -2.5615
H 8.0052 0.4660 -3.2733
H 6.8180 1.7508 -2.8450
H 6.6175 0.7758 -4.3431
H 7.2654 -2.0182 -3.1005
H 5.8962 -1.6207 -4.2112
H 5.5587 -2.3919 -2.6141
