44
 
P 1.1476 -0.0241 0.1614
Cl -0.4525 -1.2848 0.5027
Cl 0.7892 1.2658 1.7623
Cl 0.5284 0.6609 -1.7112
Pd 3.5473 0.0715 0.0250
C 5.6159 0.0981 0.0070
N 6.3778 -1.0224 0.0164
C 5.8411 -2.3834 0.0182
C 6.3024 -3.1680 1.2442
C 5.8663 -2.5264 2.5533
C 6.3822 -3.3630 3.7179
C 7.6622 -0.5795 0.0235
C 7.6442 0.7927 0.0275
C 8.8213 1.5487 0.0374
C 10.0457 0.8622 0.0402
C 10.0740 -0.5442 0.0362
C 8.8805 -1.2857 0.0271
N 6.3636 1.2169 0.0174
C 5.8549 2.5783 0.0146
C 5.0007 2.8220 1.2509
C 4.4906 4.2591 1.2659
C 3.6490 4.5030 2.5081
H 6.1908 -2.9179 -0.8910
H 4.7190 -2.3386 0.0121
H 7.4054 -3.2382 1.2454
H 5.8752 -4.1920 1.1894
H 4.7566 -2.4739 2.5875
H 6.2861 -1.4992 2.6284
H 5.9738 -4.3952 3.6574
H 6.0688 -2.9012 4.6741
H 7.4931 -3.4178 3.6871
H 8.8132 2.6283 0.0396
H 10.9773 1.4130 0.0427
H 11.0254 -1.0601 0.0371
H 8.9596 -2.3607 0.0182
H 5.2445 2.7341 -0.8993
H 6.6985 3.2945 0.0085
H 5.6145 2.6383 2.1632
H 4.1315 2.1238 1.2311
H 3.8737 4.4382 0.3587
H 5.3497 4.9671 1.2648
H 2.7911 3.7974 2.5298
H 3.2649 5.5431 2.4991
H 4.2714 4.3542 3.4163
