50
 
P 1.0105 -0.0766 -0.0634
C 0.3288 0.9284 -1.4195
C -1.0286 1.1232 -1.7248
C -1.3939 1.8978 -2.8442
C -0.4161 2.4694 -3.6687
Cl -0.8797 3.4016 -5.0867
C 0.9343 2.2878 -3.3677
C 1.3053 1.5259 -2.2509
C 0.6284 -1.7466 -0.6576
C 1.0511 -2.1837 -1.9241
C 0.6921 -3.4579 -2.3894
C -0.0869 -4.3059 -1.5949
Cl -0.5606 -5.8890 -2.1908
C -0.4954 -3.8863 -0.3268
C -0.1405 -2.6143 0.1399
C 0.4450 0.4320 1.5806
C -0.9370 0.4961 1.8287
C -1.4245 0.9376 3.0613
C -0.5359 1.3110 4.0702
Cl -1.1559 1.8935 5.6066
C 0.8438 1.2271 3.8469
C 1.3361 0.7911 2.6048
Pd 3.4705 -0.0766 -0.0634
N 5.5705 -0.0766 -0.0634
C 6.2506 -0.9167 0.7580
O 5.5789 -1.8235 1.5016
C 4.1969 -1.8967 1.5520
C 7.6521 -0.8582 0.8008
C 8.3210 0.1026 0.0345
C 7.5932 0.9633 -0.7884
C 6.2043 0.8364 -0.8459
H -1.8044 0.6865 -1.1208
H -2.4388 2.0509 -3.0825
H 1.6932 2.7314 -4.0050
H 2.3699 1.3813 -2.0367
H 1.6423 -1.5369 -2.5581
H 1.0098 -3.7848 -3.3713
H -1.0962 -4.5430 0.2923
H -0.4797 -2.3098 1.1204
H -1.6467 0.2183 1.0652
H -2.4938 0.9976 3.2267
H 1.5299 1.5123 4.6347
H 2.4033 0.7472 2.4468
H 3.9448 -2.8010 2.1520
H 3.7718 -2.0420 0.5533
H 3.7860 -1.0189 2.0579
H 8.2185 -1.5347 1.4278
H 9.3999 0.1851 0.0809
H 8.0974 1.7293 -1.3644
H 5.6209 1.5092 -1.4612
