55
 
P 1.0459 0.0889 0.0016
C 0.2874 1.8926 -0.2586
C -1.2508 1.9965 -0.2587
C 0.7193 2.9809 0.7825
C 0.8230 2.4782 -1.5881
C 0.5739 -0.9561 -1.6550
C 1.2884 -0.4101 -2.9067
C 0.9329 -2.4858 -1.7563
C -0.9590 -1.0270 -1.9062
C 0.5817 -0.5167 1.7198
C 1.1126 -1.9375 2.2137
C 2.6576 -1.9210 2.1606
C 0.6383 -2.2111 3.6598
C 0.6123 -3.1650 1.4340
Pd 3.5059 0.0889 0.0016
N 5.6059 0.0889 0.0016
C 6.2506 1.2841 -0.0711
C 7.6419 1.3275 -0.1836
C 8.3604 0.1302 -0.2231
Cl 10.1051 0.1585 -0.4046
C 7.6808 -1.0886 -0.1362
C 6.2865 -1.0884 -0.0246
H -1.6696 1.7818 0.7395
H -1.7698 1.3922 -0.9746
H -1.5572 3.0209 -0.5789
H 0.4326 2.7382 1.8213
H 0.1736 3.9395 0.5523
H 1.7852 3.2891 0.7217
H 0.2515 2.0930 -2.4268
H 1.9288 2.3292 -1.6774
H 0.6339 3.5666 -1.7106
H 2.3761 -0.3305 -2.7078
H 0.9024 0.5056 -3.3175
H 1.1281 -1.0680 -3.7895
H 2.0158 -2.7191 -1.7116
H 0.6093 -2.8950 -2.7476
H 0.2749 -3.1624 -1.1831
H -1.4197 -0.0885 -2.1605
H -1.4871 -1.5374 -1.0639
H -1.1995 -1.5931 -2.8329
H -0.5280 -0.5165 1.7888
H 0.9659 0.2351 2.4368
H 3.0456 -1.1102 2.7906
H 3.0549 -1.6925 1.1432
H 3.0484 -2.9034 2.5284
H 0.9484 -1.3951 4.3348
H 1.0783 -3.1648 4.0424
H -0.4694 -2.3342 3.7101
H 1.1822 -3.1875 0.5308
H -0.4983 -3.2027 1.3118
H 0.9183 -4.1332 1.8960
H 5.6786 2.2024 -0.0659
H 8.1514 2.2799 -0.2577
H 8.2241 -2.0240 -0.1737
H 5.7450 -2.0239 0.0161
