64
 
P 0.9656 -0.0774 -0.0531
C 0.1943 -0.8189 1.4024
C -1.1761 -0.7760 1.6214
C -1.7258 -1.3162 2.7905
C -3.1898 -1.1787 3.0434
C -0.8988 -1.9485 3.7329
C 0.4774 -2.0211 3.5140
C 1.0272 -1.4462 2.3605
C 0.3284 1.5767 0.2282
C 0.7161 2.3538 1.3096
C 0.0893 3.5900 1.5391
C 0.4348 4.3870 2.7504
C -0.9007 4.0579 0.6570
C -1.2596 3.2999 -0.4555
C -0.6496 2.0629 -0.6702
C 0.5392 -1.1511 -1.4206
C -0.8117 -1.3998 -1.7383
C -1.1578 -2.2637 -2.7835
C -2.6045 -2.5995 -3.0485
C -0.1375 -2.8372 -3.5537
C 1.2122 -2.5423 -3.2774
C 1.5614 -1.7022 -2.1965
Pd 3.4256 -0.0774 -0.0531
P 5.8856 -0.0774 -0.0531
N 6.7932 -1.0899 1.0923
C 6.4126 -2.5173 0.9914
C 8.2275 -0.8922 1.0729
O 6.3493 -0.9461 -1.4452
C 6.0671 -0.1365 -2.5657
O 6.3939 1.4083 0.6314
C 5.7644 1.6580 1.8556
H -1.8098 -0.2894 0.9019
H -3.6886 -0.6506 2.2026
H -3.3277 -0.5694 3.9605
H -3.6589 -2.1737 3.1747
H -1.3186 -2.3729 4.6383
H 1.1137 -2.5092 4.2473
H 2.1035 -1.4985 2.2236
H 1.4756 1.9773 1.9788
H 1.2403 3.8937 3.3335
H -0.4718 4.4458 3.3877
H 0.7604 5.4085 2.4676
H -1.3995 5.0036 0.8356
H -2.0278 3.6598 -1.1339
H -0.9712 1.4783 -1.5258
H -1.6048 -0.9411 -1.1694
H -3.2906 -2.0306 -2.3825
H -2.7590 -3.6795 -2.8390
H -2.8909 -2.3918 -4.1011
H -0.3943 -3.5093 -4.3669
H 1.9786 -2.9851 -3.8984
H 2.6131 -1.4573 -1.9266
H 5.3069 -2.6515 0.9302
H 6.7386 -3.0665 1.9028
H 6.8803 -3.0096 0.1117
H 8.4461 0.1631 1.3253
H 8.6357 -1.1624 0.0814
H 8.6845 -1.5204 1.8691
H 6.6510 -0.5078 -3.4353
H 6.3736 0.9323 -2.4492
H 4.9907 -0.2174 -2.8211
H 6.3362 2.4817 2.3395
H 5.8321 0.7985 2.5525
H 4.7240 2.0142 1.7004
