88
 
P 1.0670 -0.0401 0.0625
C 0.3681 0.2981 -1.5622
C -0.8616 -0.1670 -2.0344
C -1.2064 0.0399 -3.3806
C -0.3386 0.7216 -4.2454
C 0.8730 1.2163 -3.7677
C 1.2261 1.0001 -2.4361
C 0.4991 -1.7765 0.2738
C 0.6573 -2.7712 -0.7081
C 0.2168 -4.0821 -0.4848
C -0.4238 -4.4167 0.7083
C -0.6290 -3.4384 1.6800
C -0.1728 -2.1299 1.4667
C 0.5954 1.1476 1.3562
C 0.9798 0.9992 2.7114
O 1.7540 -0.0554 3.0832
C 2.1906 -0.3029 4.3721
C 0.5263 1.9463 3.6612
C -0.2937 3.0060 3.2796
C -0.6702 3.1486 1.9484
C -0.2280 2.2303 0.9936
Pd 3.5270 -0.0401 0.0625
C 5.6770 -0.0401 0.0625
N 6.4328 -1.1059 -0.1413
C 6.1059 -2.5447 -0.2864
C 4.8495 -3.0554 -0.7486
C 3.7238 -2.2204 -1.2145
C 4.6052 -4.4549 -0.8366
C 5.5856 -5.3878 -0.5141
C 5.4030 -6.8743 -0.6595
C 6.7986 -4.9366 -0.0654
C 7.0791 -3.5732 0.0601
C 8.4584 -3.3302 0.5819
C 7.8066 -0.6643 -0.0243
C 7.7404 0.7790 -0.2693
N 6.4714 1.1274 0.2711
C 6.0411 2.4737 0.4986
C 6.6522 3.5952 -0.1779
C 7.7747 3.5992 -1.2126
C 6.1969 4.8854 0.1015
C 5.1844 5.1238 1.0191
C 4.7061 6.5200 1.2615
C 4.6297 4.0618 1.7213
C 5.0508 2.7476 1.4934
C 4.4728 1.6983 2.4037
H -1.5238 -0.7186 -1.3854
H -2.1378 -0.3484 -3.7650
H -0.5971 0.8598 -5.2881
H 1.5487 1.7447 -4.4329
H 2.1883 1.3695 -2.0915
H 1.1226 -2.5379 -1.6497
H 0.3679 -4.8408 -1.2413
H -0.7697 -5.4307 0.8742
H -1.1411 -3.6980 2.5999
H -0.3506 -1.4014 2.2450
H 2.7589 -1.2531 4.3955
H 1.3256 -0.3951 5.0651
H 2.8536 0.5184 4.7189
H 0.7896 1.8702 4.7074
H -0.6425 3.7145 4.0213
H -1.3134 3.9701 1.6586
H -0.5478 2.3647 -0.0307
H 3.9681 -1.2058 -1.5078
H 3.0016 -2.2892 -0.3925
H 3.3223 -2.6462 -2.1558
H 3.6513 -4.8280 -1.1968
H 4.3916 -7.1448 -1.0202
H 5.5918 -7.3773 0.3143
H 6.1516 -7.2572 -1.3911
H 7.5515 -5.6796 0.1837
H 9.0228 -4.2386 0.8629
H 8.3836 -2.7467 1.5161
H 9.0570 -2.9140 -0.2420
H 8.4787 -1.0588 -0.8100
H 8.1492 -0.7598 1.0273
H 7.6687 0.8185 -1.3826
H 8.6056 1.3056 0.1917
H 8.2353 2.6991 -1.5975
H 8.6389 4.1552 -0.7927
H 7.4147 4.0941 -2.1346
H 6.6456 5.7258 -0.4148
H 5.2363 7.2464 0.6092
H 4.8752 6.8046 2.3200
H 3.6234 6.5731 1.0270
H 3.8704 4.2651 2.4672
H 3.7460 2.1087 3.1300
H 5.2645 1.1543 2.9545
H 3.9073 1.0262 1.8516
