40
 
P 0.9517 0.0761 -0.0434
O 0.4879 -0.5605 1.4829
C 0.8719 -1.8878 1.7230
C 2.3823 -2.0906 1.6847
O 0.5858 1.5674 -0.7951
C -0.7691 1.8623 -0.5247
C -1.0871 3.3150 -0.8403
C 0.1889 -1.2030 -1.0976
C -1.1835 -1.4018 -1.3184
C -1.6132 -2.4360 -2.1688
C -0.6878 -3.2872 -2.7834
C 0.6744 -3.0992 -2.5691
C 1.1075 -2.0608 -1.7434
Pd 3.4117 0.0761 -0.0434
N 5.5117 0.0761 -0.0434
C 6.1589 -1.0111 0.4533
C 7.5511 -1.0092 0.5633
C 8.2649 0.1239 0.1641
Cl 10.0102 0.1684 0.3346
C 7.5803 1.2273 -0.3553
C 6.1865 1.1809 -0.4579
H 0.3154 -2.5976 1.0777
H 0.5362 -2.1082 2.7615
H 2.7654 -1.9859 0.6597
H 2.5953 -3.1246 2.0250
H 2.8758 -1.3685 2.3669
H -1.0469 1.6917 0.5447
H -1.4045 1.2721 -1.2051
H -0.5333 4.0010 -0.1668
H -2.1786 3.4827 -0.6998
H -0.8312 3.5352 -1.8972
H -1.9255 -0.7785 -0.8514
H -2.6680 -2.5862 -2.3507
H -1.0229 -4.0932 -3.4256
H 1.3959 -3.7571 -3.0423
H 2.1753 -1.9354 -1.6028
H 5.5872 -1.8698 0.7800
H 8.0647 -1.8704 0.9716
H 8.1190 2.1161 -0.6578
H 5.6384 2.0369 -0.8283
