71
 
P 0.9606 0.0521 0.0757
C 0.4510 0.4085 -1.7653
C 1.1666 1.7058 -2.2381
C 2.6937 1.5163 -2.4469
C 3.0218 0.3986 -3.4487
C 2.3373 -0.8824 -3.0110
C 0.8015 -0.6162 -2.9252
C 0.1590 -1.6181 0.2221
C 0.8691 -2.7078 -0.5662
C 2.2821 -2.9633 -0.0825
C 2.1941 -3.4942 1.3360
C 1.4133 -2.5362 2.2631
C 0.0385 -2.1617 1.6788
C 0.5393 1.4765 1.1766
C -0.7926 1.9868 1.4494
C -2.1108 1.4014 0.9892
C -0.9447 3.1402 2.2455
C 0.1501 3.7556 2.8321
C 1.4241 3.2083 2.6675
C 1.6289 2.0813 1.8400
Pd 3.4206 0.0521 0.0757
P 5.8806 0.0521 0.0757
N 6.7517 -0.9629 1.2327
C 8.1929 -0.8967 1.1523
C 8.6032 0.0511 0.0395
C 10.1277 0.0945 -0.0051
C 8.0031 -0.5331 -1.3152
N 6.5325 -0.7813 -1.3060
N 6.5579 1.5549 0.6216
C 8.0249 1.4912 0.3933
H -0.6464 0.5576 -1.8017
H 0.9854 2.5175 -1.5104
H 0.7460 2.0234 -3.2193
H 3.1535 1.2685 -1.4942
H 3.1715 2.4568 -2.7802
H 4.1223 0.2318 -3.4974
H 2.6653 0.6672 -4.4673
H 2.7962 -1.1604 -2.0358
H 2.5647 -1.6978 -3.7376
H 0.1626 -1.5189 -2.9296
H 0.4797 -0.2411 -3.9214
H -0.8883 -1.4635 -0.1178
H 1.0490 -2.4768 -1.5477
H 0.2233 -3.6108 -0.5949
H 2.9379 -2.0319 -0.1731
H 2.7063 -3.7457 -0.7541
H 3.2258 -3.6551 1.7044
H 1.6652 -4.4733 1.2889
H 1.9794 -1.5974 2.4106
H 1.2792 -3.0347 3.2492
H -0.4908 -1.4559 2.3611
H -0.5959 -3.0814 1.6482
H -2.0323 0.4122 0.5143
H -2.6261 2.1166 0.3143
H -2.7874 1.2717 1.8744
H -1.9311 3.5646 2.4293
H -0.0025 4.6499 3.4319
H 2.2509 3.6850 3.1763
H 2.6463 1.6638 1.6899
H 6.4144 -1.9465 1.1095
H 8.5967 -1.9206 0.9797
H 8.5669 -0.5485 2.1387
H 10.5261 -0.9280 -0.1853
H 10.5145 0.4459 0.9777
H 10.4749 0.7770 -0.8030
H 8.4986 -1.4995 -1.5545
H 8.2470 0.1674 -2.1425
H 6.2580 -1.7877 -1.3215
H 6.2732 1.7807 1.6004
H 8.5175 1.8745 1.3137
H 8.2884 2.1913 -0.4282
