31
 
P 1.5005 -0.0401 0.0153
N 0.6419 1.4523 -0.3119
C -0.7965 1.3920 -0.3117
C -1.2682 -0.0143 0.0003
C -2.8020 -0.0129 0.0022
C -0.7174 -0.9739 -1.1064
N 0.7704 -1.0001 -1.2480
N 0.7680 -0.3952 1.5560
C -0.7182 -0.4289 1.4084
Pd 3.8456 -0.0548 0.0402
O 5.7938 -0.0520 0.0231
C 6.5451 0.0745 -1.0501
C 7.8624 0.0693 -0.6467
C 7.8438 -0.0631 0.7220
C 6.5272 -0.1332 1.0962
H 1.0151 1.7718 -1.2366
H -1.1689 1.7360 -1.3025
H -1.1556 2.1119 0.4553
H -3.1857 0.3127 -0.9900
H -3.1838 0.6941 0.7722
H -3.1852 -1.0275 0.2227
H -1.1523 -0.6704 -2.0816
H -1.0963 -1.9940 -0.8743
H 1.0919 -0.6276 -2.1580
H 1.0897 0.3233 2.2259
H -1.1534 0.2496 2.1706
H -1.0965 -1.4542 1.6181
H 6.2065 0.1703 -2.0757
H 8.7476 0.1516 -1.2586
H 8.6937 -0.1034 1.3753
H 6.1558 -0.2338 2.1013
