85
 
P 1.0734 -0.0467 -0.0493
C 0.5110 -1.5010 -1.0697
C 0.1758 -1.3585 -2.4379
C -0.2984 -2.4552 -3.1881
C -0.4294 -3.7134 -2.5995
C -0.1025 -3.8791 -1.2594
C 0.3390 -2.7879 -0.5013
C 0.6004 -0.1900 1.7219
C 1.0052 -1.2985 2.4832
C 0.5351 -1.4777 3.7919
C -0.3339 -0.5472 4.3657
C -0.7226 0.5719 3.6404
C -0.2567 0.7551 2.3420
C 0.1729 1.4478 -0.5948
C -1.3104 1.4798 -0.5414
C -2.0799 0.3880 -0.1219
C -3.4624 0.4634 -0.1499
C -4.0903 1.6315 -0.5868
C -3.3292 2.7441 -0.9591
C -1.9394 2.6712 -0.9322
Pd 3.5334 -0.0467 -0.0493
C 5.6834 -0.0467 -0.0493
N 6.4147 1.1325 -0.1002
C 6.0063 2.5849 -0.1119
C 4.6349 3.0174 -0.0114
C 3.4988 2.1871 0.2585
C 4.2351 4.3359 -0.0338
C 5.1397 5.3455 -0.0781
C 4.6186 6.7413 -0.0113
C 6.4932 5.0371 -0.1263
C 6.9512 3.6941 -0.1518
C 8.4490 3.5644 -0.1643
C 7.6821 0.6788 -0.0629
C 7.7208 -0.6665 0.0265
N 6.4844 -1.2014 0.0002
C 6.1665 -2.6937 -0.0320
C 7.1121 -3.8039 -0.0561
C 8.6096 -3.7799 -0.1340
C 6.6428 -5.1567 -0.0466
C 5.2899 -5.4737 -0.0541
C 4.7151 -6.8438 -0.0223
C 4.4005 -4.4764 -0.1081
C 4.8264 -3.1740 -0.1074
C 3.7576 -2.3434 -0.1462
H 0.2630 -0.4041 -2.9354
H -0.5698 -2.3402 -4.2310
H -0.7887 -4.5613 -3.1756
H -0.1986 -4.8580 -0.8025
H 0.5558 -2.9876 0.5264
H 1.6629 -2.0438 2.0686
H 0.8321 -2.3486 4.3592
H -0.7090 -0.6879 5.3708
H -1.4011 1.2982 4.0731
H -0.6181 1.6371 1.8489
H 0.4851 1.6466 -1.6408
H 0.5760 2.2894 0.0147
H -1.6284 -0.5277 0.2237
H -4.0359 -0.3968 0.1597
H -5.1661 1.6715 -0.6309
H -3.8110 3.6577 -1.2789
H -1.3504 3.5376 -1.2237
H 3.9325 1.4890 0.9745
H 2.9389 2.0511 -0.7080
H 2.7761 2.5870 0.9879
H 3.1762 4.5799 0.0372
H 3.5034 6.7563 0.0388
H 4.9291 7.2908 -0.9166
H 4.9952 7.2173 0.9152
H 7.1945 5.8611 -0.1252
H 8.9801 4.5371 -0.1596
H 8.7762 3.0413 -1.0872
H 8.7711 3.0688 0.7776
H 8.6056 1.1956 -0.0737
H 8.6702 -1.0995 0.0990
H 9.1499 -2.8773 -0.3117
H 8.8986 -4.3620 -1.0322
H 9.0233 -4.2466 0.7814
H 7.3391 -5.9804 -0.0469
H 5.5089 -7.6044 -0.0103
H 4.0566 -6.9768 -0.9116
H 4.0800 -6.9323 0.8904
H 3.3332 -4.7209 -0.1300
H 2.7603 -2.6894 -0.3568
H 3.9844 -1.6803 -1.0002
H 3.7771 -2.1258 0.9768
