64
 
P 0.9352 -0.0104 0.0755
C 0.1270 -0.1617 -1.5914
C -1.3946 -0.2218 -1.5075
C 0.5418 1.0601 -2.4517
C 0.6811 -1.4058 -2.3167
C 0.3914 -1.6462 0.7611
C 1.1467 -2.8200 0.6703
C 0.7695 -3.9956 1.3299
C -0.3867 -4.0251 2.1047
C -1.1787 -2.8858 2.1939
C -0.7998 -1.7157 1.5257
C 0.4699 1.6127 0.8106
C -0.3377 1.6594 1.9739
C -0.7553 2.8715 2.5284
C -0.3581 4.0712 1.9512
C 0.4706 4.0554 0.8276
C 0.8862 2.8383 0.2633
Pd 3.3952 -0.0104 0.0755
C 5.5452 -0.0104 0.0755
N 6.2902 1.0040 0.4982
C 5.7497 2.2557 1.0126
C 6.2839 3.4082 0.1481
C 4.1786 2.2071 1.0277
C 7.5750 0.6124 0.3305
C 7.5660 -0.6630 -0.2107
N 6.2789 -1.0359 -0.3585
C 5.7314 -2.2876 -0.8647
C 6.2172 -3.4369 0.0302
C 4.1877 -2.2071 -0.8676
H -1.7872 0.6988 -1.0277
H -1.7177 -1.1087 -0.9324
H -1.8207 -0.3023 -2.5310
H 0.1181 2.0029 -2.0601
H 0.1676 0.9732 -3.4934
H 1.6521 1.1590 -2.5020
H 0.4255 -2.3433 -1.7933
H 1.7854 -1.3400 -2.4077
H 0.2722 -1.4821 -3.3455
H 2.0206 -2.8469 0.0968
H 1.3841 -4.8824 1.2493
H -0.6716 -4.9291 2.6290
H -2.0833 -2.9054 2.7907
H -1.4599 -0.8764 1.6263
H -0.6671 0.7813 2.4859
H -1.3900 2.8783 3.4088
H -0.6856 5.0095 2.3834
H 0.7873 4.9925 0.3921
H 1.5304 2.8663 -0.5996
H 6.1239 2.3972 2.0515
H 5.9671 3.2778 -0.9085
H 7.3982 3.4213 0.1685
H 5.9310 4.3888 0.5247
H 3.7517 2.0832 0.0236
H 3.8122 3.1561 1.4699
H 3.7868 1.3724 1.6288
H 8.4512 1.1994 0.5724
H 8.4249 -1.2688 -0.4712
H 6.0919 -2.4526 -1.9035
H 5.8766 -3.2799 1.0772
H 7.3282 -3.4771 0.0340
H 5.8377 -4.4132 -0.3339
H 3.8618 -2.0236 0.1621
H 3.7734 -3.1574 -1.2634
H 3.8093 -1.3733 -1.4724
