72
 
P 0.9276 0.0645 0.0245
C -0.0717 -0.7679 1.4812
C 0.0904 -2.3356 1.5778
C 1.5052 -2.7736 2.0179
C 1.8234 -2.2176 3.4105
C 1.6496 -0.6899 3.4220
C 0.2487 -0.2676 2.9242
C 0.9630 1.9760 0.0879
C 1.7058 2.1770 -1.2403
C 0.6700 1.9962 -2.4050
C -0.0600 3.3053 -2.5514
C -0.8344 3.5664 -1.2454
C -0.0239 3.2477 0.0599
C 0.6527 -0.9988 -1.4442
C -0.6285 -1.2429 -2.0362
C -1.9400 -0.8074 -1.4483
C -0.7074 -1.8947 -3.2792
C 0.4417 -2.3136 -3.9403
C 1.6922 -2.1035 -3.3609
C 1.8027 -1.4494 -2.1240
Pd 3.3876 0.0645 0.0245
P 5.8476 0.0645 0.0245
C 6.7708 -0.1608 1.5840
C 6.3110 -1.3871 -0.9593
C 6.3508 1.7843 -0.3972
C 5.8143 2.8023 0.6049
C 7.8942 1.8627 -0.4940
C 5.7895 2.0904 -1.8026
H -1.1461 -0.5732 1.3597
H -0.1948 -2.8465 0.6385
H -0.6064 -2.7336 2.3609
H 2.2497 -2.4130 1.2813
H 1.5751 -3.8860 2.0704
H 2.8633 -2.4898 3.7065
H 1.1442 -2.6884 4.1607
H 2.4147 -0.2278 2.7700
H 1.8019 -0.3378 4.4679
H 0.1052 0.8255 3.0063
H -0.4870 -0.7346 3.6301
H 1.5605 2.1549 1.0048
H 2.5512 1.4820 -1.3228
H 2.1943 3.1692 -1.3166
H -0.1249 1.2467 -2.2073
H 1.1621 1.6987 -3.3485
H -0.7611 3.2884 -3.4183
H 0.7122 4.0732 -2.7732
H -1.7399 2.9350 -1.2461
H -1.1649 4.6363 -1.2676
H -0.6772 3.3717 0.9475
H 0.6806 4.1173 0.1317
H -1.8353 -0.2645 -0.5126
H -2.5712 -1.7072 -1.2761
H -2.4693 -0.1175 -2.1353
H -1.6705 -2.0557 -3.7541
H 0.3573 -2.7935 -4.9095
H 2.5779 -2.4275 -3.8922
H 2.7919 -1.2590 -1.7206
H 6.4373 -1.1440 1.9880
H 6.4457 0.5790 2.3428
H 7.8658 -0.2017 1.4780
H 5.9192 -2.3127 -0.4971
H 7.4209 -1.4381 -1.0060
H 5.9200 -1.2767 -1.9921
H 6.2375 2.6303 1.6116
H 4.7064 2.7358 0.6518
H 6.1082 3.8268 0.2907
H 8.3850 1.6638 0.4769
H 8.2243 2.8705 -0.8203
H 8.2821 1.1229 -1.2324
H 4.6856 2.0296 -1.8150
H 6.1750 1.3645 -2.5553
H 6.0854 3.1075 -2.1388
