58
 
P 1.0702 -0.0319 0.0636
C 0.5986 0.3381 -1.6452
C -0.3674 1.3186 -1.9179
C -0.7936 1.5745 -3.2157
C -0.2696 0.8363 -4.2722
C 0.6884 -0.1528 -4.0234
C 1.1264 -0.4010 -2.7139
C 0.6381 -1.7812 0.4884
C -0.0064 -2.6149 -0.4588
C -0.3057 -3.9567 -0.1689
C 0.0240 -4.4966 1.0719
C 0.6247 -3.6868 2.0366
C 0.9245 -2.3383 1.7552
C 0.2797 1.2304 1.1949
C 0.7172 2.6801 0.8585
C -0.2833 3.6001 0.4948
C 0.0262 4.8741 0.0199
C 1.3497 5.2972 -0.0437
C 2.3684 4.4533 0.4137
C 2.0664 3.1421 0.8604
Pd 3.5302 -0.0319 0.0636
N 5.6302 -0.0319 0.0636
C 5.9632 -1.2963 -0.6128
C 6.1053 1.0523 -0.8196
C 6.2545 -0.1184 1.3596
C 5.6351 -0.9233 2.3404
C 6.3113 -1.2778 3.5142
C 7.6158 -0.8344 3.7334
C 8.2529 -0.0481 2.7748
C 7.5917 0.2969 1.5929
H -0.8318 1.8746 -1.1404
H -1.5453 2.3348 -3.3915
H -0.6181 1.0261 -5.2782
H 1.0806 -0.7332 -4.8464
H 1.8543 -1.1812 -2.5319
H -0.2801 -2.2473 -1.4344
H -0.7890 -4.5868 -0.9087
H -0.1917 -5.5400 1.2878
H 0.8605 -4.1164 3.0031
H 1.3811 -1.7451 2.5332
H 0.6048 1.0216 2.2388
H -0.8197 1.1323 1.1471
H -1.3211 3.3061 0.5311
H -0.7711 5.5240 -0.3179
H 1.5746 6.2829 -0.4422
H 3.3899 4.8225 0.3888
H 2.8871 2.4987 1.1764
H 5.4948 -1.3543 -1.6178
H 5.5940 -2.1769 -0.0406
H 7.0693 -1.4214 -0.7246
H 5.2386 1.5218 -1.3234
H 6.7448 0.6794 -1.6672
H 6.7064 1.8342 -0.3273
H 4.6519 -1.3411 2.1593
H 5.8392 -1.9303 4.2386
H 8.1468 -1.1264 4.6310
H 9.2799 0.2592 2.9268
H 8.1674 0.8303 0.8520
