41
 
P 1.2750 0.0000 0.0000
N 0.3715 -0.7070 1.3517
C -1.0688 -0.6207 1.2662
C -1.4645 0.0306 -0.0444
C -2.9946 0.0629 -0.1086
C -0.8684 1.5006 -0.0429
N 0.6029 1.5992 0.1758
N 0.6012 -1.0696 -1.1980
C -0.8732 -0.8502 -1.2258
Pd 3.7350 0.0003 -0.0005
N 5.8350 0.0006 -0.0009
C 6.5318 -1.1848 0.0894
N 5.8493 -2.4608 0.0931
C 6.4096 -3.6459 0.7325
C 4.5662 -2.6550 -0.5594
C 7.9388 -1.1243 0.1891
C 8.5865 0.1098 0.2021
C 7.8459 1.2845 0.1254
C 6.4586 1.2084 0.0281
H 0.7138 -0.2637 2.2370
H -1.4613 -0.0445 2.1366
H -1.4710 -1.6541 1.3462
H -3.3995 0.6339 0.7567
H -3.3974 -0.9732 -0.0465
H -3.3383 0.5317 -1.0495
H -1.3689 2.0977 0.7531
H -1.1186 1.9836 -1.0097
H 0.8387 1.9679 1.1249
H 0.8428 -2.0530 -0.9362
H -1.3665 -1.8491 -1.2178
H -1.1389 -0.3702 -2.1895
H 7.3543 -3.4536 1.2731
H 6.5782 -4.4458 -0.0201
H 5.6930 -4.0265 1.4927
H 4.2296 -1.7717 -1.1082
H 3.8021 -2.9760 0.1812
H 4.6658 -3.4562 -1.3241
H 8.5496 -2.0134 0.2415
H 9.6654 0.1538 0.2775
H 8.3421 2.2459 0.1507
H 5.8698 2.1149 -0.0100
