74
 
P 0.9301 0.0713 0.0065
C 0.2150 -0.5885 -1.6319
C 0.8733 0.2220 -2.7872
C 2.3939 -0.0565 -2.8442
C 2.6610 -1.5611 -3.0113
C 2.0387 -2.3358 -1.9148
C 0.5423 -2.0840 -1.9739
C 0.2990 -0.9827 1.4648
C 0.8284 -2.4328 1.4665
C 2.3248 -2.4908 1.8121
C 2.5785 -1.9384 3.2107
C 2.0148 -0.5100 3.3173
C 0.5327 -0.4467 2.9103
C 0.4392 1.8574 0.0137
C 1.3390 2.9508 0.1756
C 2.7819 2.7839 0.4972
C 0.8725 4.2778 0.0824
C -0.4744 4.5475 -0.1288
C -1.3749 3.4943 -0.2529
C -0.9252 2.1659 -0.1879
Pd 3.3901 0.0713 0.0065
C 5.5401 0.0713 0.0065
N 6.2337 0.6364 0.9238
C 5.6901 1.4208 2.0014
C 7.6516 0.4741 0.6881
C 7.7099 -0.6268 -0.3715
N 6.4078 -0.5455 -0.9667
C 6.1350 -1.0779 -2.2693
C 6.6395 -2.3421 -2.6443
C 6.2819 -2.9232 -3.8691
C 5.4660 -2.2313 -4.7638
C 5.0645 -0.9251 -4.4661
C 5.3940 -0.3487 -3.2135
H -0.8826 -0.4674 -1.6779
H 0.6765 1.3090 -2.6798
H 0.4421 -0.0804 -3.7721
H 2.9151 0.2065 -1.9052
H 2.8242 0.5431 -3.6792
H 3.6809 -1.8726 -2.8356
H 2.3417 -1.9103 -4.0174
H 2.5056 -1.9828 -0.9740
H 2.3025 -3.4064 -2.0657
H 0.0072 -2.8127 -1.3652
H 0.2175 -2.3388 -3.0145
H -0.8052 -1.0063 1.3282
H 0.6562 -2.9151 0.5160
H 0.2611 -3.0390 2.2094
H 2.9045 -1.8763 1.1059
H 2.6899 -3.5378 1.7456
H 3.6742 -1.9198 3.4025
H 2.1182 -2.6169 3.9660
H 2.5742 0.1553 2.6303
H 2.1464 -0.1558 4.3649
H 0.1341 0.5805 3.0341
H -0.0442 -1.0899 3.6256
H 2.9865 1.7567 0.8095
H 3.0181 3.3784 1.4028
H 3.4085 3.1484 -0.3470
H 1.5549 5.1141 0.1967
H -0.8183 5.5759 -0.1822
H -2.4243 3.7151 -0.4072
H -1.6538 1.3768 -0.3080
H 4.5893 1.3788 1.9989
H 6.0332 2.4739 1.8888
H 6.0412 1.0248 2.9736
H 8.2323 0.1748 1.5852
H 8.0320 1.4356 0.2757
H 7.7801 -1.6269 0.1120
H 8.5468 -0.4761 -1.0879
H 7.2620 -2.9095 -1.9669
H 6.6139 -3.9249 -4.1145
H 5.1345 -2.7124 -5.6788
H 4.4122 -0.4083 -5.1603
H 5.0237 0.6319 -2.9534
