76
 
P 1.0554 0.0707 -0.0439
C 0.0970 0.4534 1.5004
C -1.1860 1.0449 1.5200
C -1.8185 1.3602 2.7354
C -1.1907 1.0990 3.9533
C 0.0791 0.5267 3.9638
C 0.7209 0.2108 2.7529
C 0.1680 1.2525 -1.1525
C 0.2275 2.6526 -0.9755
C -0.6048 3.5070 -1.7272
C -1.4951 2.9839 -2.6676
C -1.5374 1.6080 -2.8849
C -0.7135 0.7480 -2.1379
C 0.8197 -1.7536 -0.2420
C 1.3007 -2.4697 -1.3879
O 1.9222 -1.8157 -2.4116
C 2.3395 -2.4125 -3.5971
C 1.1127 -3.8753 -1.4562
C 0.4390 -4.5595 -0.4531
C -0.0817 -3.8620 0.6262
C 0.1053 -2.4829 0.7334
Pd 3.5154 0.0707 -0.0439
C 5.6654 0.0707 -0.0439
N 6.4242 -1.0433 -0.0553
C 5.8841 -2.4094 -0.0482
C 6.3311 -3.1544 1.2146
C 4.3363 -2.3771 -0.1108
C 7.7079 -0.5902 -0.0620
C 7.7056 0.7861 -0.0447
C 8.8963 1.5310 -0.0207
C 10.1103 0.8358 -0.0298
C 10.1225 -0.5711 -0.0602
C 8.9163 -1.3024 -0.0767
N 6.4322 1.2326 -0.0358
C 6.0392 2.6830 0.0448
C 5.3454 2.8779 1.3540
C 6.0172 2.4061 2.4848
C 5.3203 2.2029 3.6639
C 3.9692 2.5452 3.7440
C 3.3407 3.1869 2.6689
C 4.0286 3.3603 1.4618
H -1.7110 1.2763 0.6091
H -2.8005 1.8162 2.7381
H -1.6860 1.3465 4.8882
H 0.5633 0.3375 4.9172
H 1.7144 -0.2171 2.8046
H 0.8778 3.0882 -0.2317
H -0.5859 4.5788 -1.5685
H -2.1582 3.6428 -3.2231
H -2.2329 1.2111 -3.6176
H -0.8028 -0.3156 -2.3094
H 2.7919 -1.6558 -4.2680
H 1.4780 -2.8746 -4.1335
H 3.1012 -3.1984 -3.3967
H 1.4795 -4.4638 -2.2882
H 0.3075 -5.6336 -0.5220
H -0.6323 -4.3958 1.3894
H -0.3301 -2.0052 1.5921
H 6.2602 -2.9514 -0.9438
H 5.9848 -2.6177 2.1230
H 7.4326 -3.2431 1.2619
H 5.9164 -4.1843 1.2179
H 3.8957 -1.8259 0.7618
H 3.9341 -3.4111 -0.1173
H 4.0270 -1.8796 -1.0540
H 8.9196 2.6109 0.0056
H 11.0420 1.3896 -0.0152
H 11.0735 -1.0871 -0.0691
H 8.9504 -2.3793 -0.1013
H 5.4032 2.9822 -0.8140
H 6.9232 3.3568 0.0330
H 7.0570 2.1065 2.4179
H 5.8278 1.7275 4.4897
H 3.4151 2.3114 4.6407
H 2.3051 3.4906 2.7540
H 3.5132 3.8022 0.6155
