50
 
C 0.9010 -0.6430 -0.0020
N -0.3534 -1.0891 -0.0032
C -0.7219 -2.4969 0.0055
C -1.5908 -2.8053 -1.2191
C 0.5711 -3.3603 0.0273
C -1.1365 0.0109 0.0095
C -0.3074 1.1234 0.0128
N 0.9726 0.6889 0.0060
C 2.2233 1.4547 -0.0038
C 3.4567 0.4978 -0.0164
C 2.2457 2.4029 -1.2124
Pd 2.6584 -1.8814 -0.0135
P 4.6693 -3.2985 -0.0267
C 6.0168 -2.9250 -1.1968
C 5.6776 -2.6229 1.3275
C 4.1382 -5.0539 -0.1965
C 3.3807 -5.2582 -1.5143
C 5.3693 -5.9730 -0.1708
C 3.2559 -5.4281 1.0061
H -1.3211 -2.6995 0.9231
H -1.0273 -2.5916 -2.1514
H -2.5053 -2.1708 -1.2114
H -1.9142 -3.8665 -1.2158
H 1.1864 -3.1654 -0.8499
H 0.2757 -4.4302 0.0883
H 1.2060 -3.0883 0.8764
H -2.2192 0.0089 0.0157
H -0.6191 2.1599 0.0148
H 2.2621 2.0735 0.9184
H 3.4706 -0.1516 -0.9085
H 3.4564 -0.1529 0.8728
H 4.3929 1.0874 0.0027
H 2.1864 1.8362 -2.1657
H 3.1731 3.0130 -1.2067
H 1.3832 3.1047 -1.1698
H 6.2827 -1.8468 -1.1461
H 5.5745 -3.0687 -2.2111
H 6.9035 -3.5723 -1.1018
H 5.9164 -1.5505 1.2474
H 6.6081 -3.2358 1.3991
H 5.1213 -2.8259 2.2695
H 4.0259 -5.0138 -2.3827
H 2.4946 -4.6143 -1.5702
H 3.0354 -6.3095 -1.6078
H 6.0469 -5.7576 -1.0210
H 5.0581 -7.0379 -0.2445
H 5.9347 -5.8425 0.7775
H 2.3701 -4.8009 1.0625
H 3.8032 -5.2913 1.9637
H 2.9071 -6.4800 0.9405
