29
 
C 0.9010 -0.6430 -0.0020
N 0.6331 0.2865 0.9266
C 1.4437 0.5906 2.0953
C -0.5540 0.8272 0.5841
C -0.9847 0.2141 -0.5801
N -0.0664 -0.7095 -0.9290
C -0.0655 -1.5730 -2.1013
Pd 2.6584 -1.8814 -0.0135
N 4.3750 -3.0911 -0.0247
C 4.3619 -3.8945 1.2086
C 4.3440 -3.9498 -1.2126
C 5.5509 -2.2124 0.0603
H 2.3553 -0.0540 2.1019
H 0.8538 0.3884 3.0170
H 1.7363 1.6597 2.0795
H -1.0696 1.6023 1.1362
H -1.8926 0.4293 -1.1289
H -0.9696 -1.3905 -2.7205
H -0.0371 -2.6349 -1.7862
H 0.8340 -1.3550 -2.7192
H 3.4569 -4.5376 1.2335
H 4.3326 -3.2440 2.1094
H 5.2584 -4.5554 1.2623
H 3.4240 -4.5703 -1.2236
H 5.2450 -4.5999 -1.2621
H 4.3243 -3.3100 -2.1224
H 5.5102 -1.5626 0.9602
H 5.5685 -1.5438 -0.8280
H 6.4948 -2.8032 0.0545
