64
 
P 1.2750 0.0000 0.0000
N 0.4526 1.5298 -0.2533
C 1.0867 2.5147 0.6877
C 2.6361 2.6463 0.4613
C 0.4993 3.9228 0.5494
C -1.0029 1.4090 -0.2268
C -1.4262 -0.0354 0.0197
C -2.9616 -0.0841 0.0195
C -0.8542 -0.9607 -1.1426
N 0.6389 -0.9466 -1.3562
C 1.1959 -2.3560 -1.3052
C 0.6336 -3.3350 -2.3443
C 2.7352 -2.4521 -1.3997
N 0.6492 -0.3673 1.6133
C 1.2243 -1.6676 2.1221
C 2.7762 -1.7037 2.1925
C 0.6657 -2.1154 3.4816
C -0.8485 -0.4655 1.4370
Pd 3.7350 0.0003 -0.0005
C 5.8850 0.0006 -0.0009
N 6.6615 -1.0980 0.0513
C 6.2307 -2.4851 0.1267
C 7.9359 -0.6592 0.0260
C 7.9157 0.7200 -0.0456
N 6.6285 1.1188 -0.0646
C 6.1292 2.4839 -0.1332
H 0.9184 2.1955 1.7425
H 2.8801 2.8849 -0.5915
H 3.2201 1.7611 0.7192
H 3.0565 3.4323 1.1250
H 0.6849 4.3160 -0.4694
H 0.9798 4.5912 1.2980
H -0.5821 3.9561 0.7686
H -1.3843 1.7636 -1.2106
H -1.4536 2.0399 0.5622
H -3.3531 0.2515 -0.9670
H -3.3688 0.5990 0.7971
H -3.3229 -1.1115 0.2191
H -1.3210 -0.6712 -2.1083
H -1.2286 -1.9757 -0.8968
H 0.8858 -2.8291 -0.3880
H 0.9422 -3.0540 -3.3675
H -0.4653 -3.4382 -2.2877
H 1.0401 -4.3515 -2.1163
H 3.1044 -2.2234 -2.4163
H 3.0619 -3.4777 -1.1104
H 3.2649 -1.7989 -0.7242
H 0.9040 -2.4877 1.4987
H 3.1489 -1.0056 2.9692
H 3.3067 -1.5040 1.2372
H 3.1012 -2.7333 2.4608
H 0.9518 -1.4200 4.2903
H 1.0692 -3.1305 3.7103
H -0.4353 -2.2388 3.4645
H -1.3090 0.1751 2.2213
H -1.2216 -1.4964 1.5969
H 5.1281 -2.5461 0.1510
H 6.6281 -2.9503 1.0525
H 6.6091 -3.0413 -0.7570
H 8.8134 -1.2921 0.0593
H 8.7742 1.3785 -0.0791
H 6.9729 3.2051 -0.1808
H 5.5262 2.7038 0.7712
H 5.4976 2.6046 -1.0380
