76
 
C 0.9010 -0.6430 -0.0020
N -0.4437 -1.0009 0.0851
C -0.9295 -2.3753 0.1055
C -0.4552 -2.8267 1.5160
C -1.6270 -2.7264 2.5168
C -2.6431 -3.8002 2.1605
C -3.2610 -3.4641 0.8082
C -2.1911 -3.2645 -0.2663
C -1.1396 0.1283 0.2256
C -0.2503 1.1689 0.1472
N 1.0187 0.6909 -0.0017
C 2.2554 1.4963 -0.1059
C 2.1202 2.7275 0.8089
C 2.0672 2.2674 2.2720
C 3.4400 1.7273 2.6228
C 3.7559 0.5072 1.7411
C 3.6021 0.7709 0.2299
Pd 2.6584 -1.8814 -0.0135
P 4.6693 -3.2985 -0.0267
O 4.7599 -4.9797 0.3437
C 3.5830 -5.6274 -0.2278
C 3.3680 -7.0519 0.2914
C 2.2087 -4.9134 -0.0465
O 4.7957 -3.6920 -1.6883
C 5.1302 -2.6153 -2.5274
C 6.3838 -1.8257 -2.1028
C 5.4009 -3.2282 -3.9087
O 5.9500 -2.6381 0.8914
C 5.5198 -2.3943 2.2248
C 5.1609 -3.6534 3.0182
C 6.6342 -1.6382 2.9589
H -0.6870 -2.3892 -0.9845
H 0.3505 -2.1827 1.9390
H -0.0705 -3.8548 1.4917
H -2.1146 -1.7183 2.5043
H -1.2558 -2.9148 3.5420
H -3.4413 -3.8631 2.9287
H -2.1192 -4.7844 2.1299
H -3.8620 -2.5400 0.8874
H -3.9329 -4.3034 0.5094
H -2.7053 -3.0669 -1.2358
H -1.7389 -4.2838 -0.4107
H -2.2052 0.1922 0.3893
H -0.5430 2.2023 0.2361
H 2.3261 1.8349 -1.1609
H 1.2151 3.3032 0.5603
H 2.9671 3.4282 0.6477
H 1.2993 1.4737 2.4366
H 1.8136 3.1199 2.9298
H 3.4763 1.4471 3.6986
H 4.1845 2.5406 2.4625
H 3.0663 -0.3093 2.0300
H 4.8144 0.2657 1.9591
H 3.8370 -0.0763 -0.4427
H 4.4066 1.4999 -0.0108
H 3.7577 -5.7448 -1.3143
H 3.0751 -7.0607 1.3635
H 4.2583 -7.6837 0.1224
H 2.5250 -7.5085 -0.2842
H 1.9191 -4.8425 1.0252
H 1.4133 -5.4616 -0.5942
H 2.1938 -3.9451 -0.5448
H 4.2516 -1.9436 -2.6056
H 7.2681 -2.4954 -2.0216
H 6.2263 -1.3042 -1.1411
H 6.5976 -1.0344 -2.8515
H 6.2883 -3.9022 -3.8730
H 5.5885 -2.4371 -4.6634
H 4.5308 -3.8356 -4.2382
H 4.6168 -1.7837 2.2379
H 6.0026 -4.3708 2.9961
H 4.2385 -4.1192 2.6152
H 4.9228 -3.3770 4.0690
H 7.5505 -2.2631 3.0008
H 6.3197 -1.3911 3.9972
H 6.8836 -0.6869 2.4429
