80
 
C 0.9009 -0.6442 -0.0142
N 0.5335 0.1713 1.0021
C 1.2813 0.3759 2.2471
C 2.6620 0.9191 1.8901
C 0.5543 1.4191 3.1112
C 1.3956 -0.9465 3.0301
C -0.6254 0.7489 0.6044
C -0.9332 0.2802 -0.6473
N 0.0325 -0.5859 -1.0178
C 0.1321 -1.3451 -2.2543
C 0.1870 -0.3471 -3.4270
C 1.4267 -2.1774 -2.2215
C -1.1015 -2.2877 -2.3700
Pd 2.6576 -1.8738 -0.0071
P 4.6683 -3.3010 -0.0322
C 5.7275 -2.9866 -1.5507
C 6.2164 -1.5256 -1.6431
C 6.8958 -3.9476 -1.7617
C 4.7740 -3.1620 -2.7544
C 5.7097 -2.8072 1.4944
C 4.7886 -3.0819 2.7010
C 6.9795 -3.6781 1.7484
C 6.1699 -1.3621 1.5736
C 4.1581 -5.0310 -0.1275
C 2.8008 -5.3634 -0.1785
C 2.3617 -6.6623 -0.2452
C 3.2652 -7.7305 -0.2197
N 2.7824 -9.0925 -0.1209
C 1.3579 -9.4401 -0.0412
C 3.6853 -10.2198 0.0369
C 4.6526 -7.3907 -0.2400
C 5.0771 -6.0589 -0.1989
H 2.4908 1.8790 1.3323
H 3.2070 0.1944 1.2461
H 3.2628 1.0938 2.8099
H 0.4966 2.3929 2.5700
H 1.1007 1.5817 4.0643
H -0.4759 1.0731 3.3439
H 1.9140 -1.7147 2.4162
H 0.3775 -1.3223 3.2776
H 1.9555 -0.8093 3.9772
H -1.2119 1.4633 1.1655
H -1.7972 0.5537 -1.2385
H 1.0609 0.3363 -3.3196
H -0.7284 0.2825 -3.4401
H 0.2842 -0.8739 -4.3972
H 2.3141 -1.5189 -2.0993
H 1.5449 -2.7518 -3.1631
H 1.4019 -2.8793 -1.3626
H -2.0384 -1.7310 -2.3380
H -1.1289 -2.9619 -1.5062
H -1.0429 -2.8480 -3.3273
H 7.0313 -1.3007 -0.9656
H 5.3803 -0.8178 -1.4930
H 6.6634 -1.3101 -2.6332
H 7.7165 -3.7684 -1.0750
H 7.3575 -3.7697 -2.7536
H 6.5536 -4.9968 -1.7120
H 3.9112 -2.4620 -2.6937
H 4.3805 -4.1969 -2.8199
H 5.3063 -2.9462 -3.7081
H 4.4629 -4.1484 2.7221
H 3.8831 -2.4435 2.6707
H 5.3244 -2.8929 3.6574
H 6.7968 -4.7391 1.9164
H 7.4708 -3.4070 2.7004
H 7.7697 -3.5408 1.0118
H 5.3312 -0.6844 1.4415
H 6.9854 -1.1439 0.8922
H 6.6294 -1.1736 2.5651
H 2.0148 -4.6624 -0.1537
H 1.2942 -6.7632 -0.2844
H 0.6361 -8.6153 -0.1015
H 1.1447 -9.9173 0.9389
H 1.0882 -10.1352 -0.8604
H 4.7505 -9.9681 0.0238
H 3.5193 -10.9428 -0.7841
H 3.4995 -10.6987 1.0211
H 5.4523 -8.1030 -0.2595
H 6.1155 -5.8276 -0.1854
