42
 
C 1.0240 -0.6530 -0.0550
N -0.1659 -1.1186 0.0360
C -0.5208 -2.5066 -0.1159
C -1.1350 -0.0571 0.2076
C -0.2684 1.1697 0.5114
N 1.0279 0.7521 0.0500
C 2.1497 1.6291 -0.1621
Pd 2.7802 -1.8697 -0.2955
C 4.5364 -3.0865 -0.5360
N 4.4907 -4.3593 -0.5719
C 3.2794 -5.1190 -0.4015
C 5.8070 -4.9269 -0.7438
C 6.6725 -3.7097 -1.0950
N 5.8520 -2.5949 -0.6860
C 6.3062 -1.2455 -0.5365
C 7.6500 -0.9187 -0.8165
C 8.1214 0.3844 -0.6543
C 7.2636 1.3860 -0.2056
C 5.9332 1.0821 0.0905
C 5.4520 -0.2264 -0.0697
H 0.3891 -3.1302 -0.2825
H -1.2059 -2.6091 -0.9881
H -1.0624 -2.8486 0.7908
H -1.8654 -0.2411 1.0239
H -1.6645 0.0724 -0.7630
H -0.1838 1.3090 1.6149
H -0.6598 2.0912 0.0334
H 1.8543 2.6823 0.0402
H 2.4655 1.5586 -1.2248
H 2.9834 1.3563 0.5067
H 2.4049 -4.4241 -0.2781
H 3.3813 -5.7699 0.4939
H 3.1272 -5.7675 -1.2915
H 5.8720 -5.6933 -1.5444
H 6.1122 -5.3587 0.2358
H 6.7892 -3.6168 -2.1986
H 7.6631 -3.7763 -0.5983
H 8.3479 -1.6684 -1.1595
H 9.1560 0.6139 -0.8754
H 7.6341 2.3957 -0.0815
H 5.2821 1.8669 0.4507
H 4.4310 -0.4348 0.1879
