63
 
C 1.0240 -0.6530 -0.0550
N 0.7144 0.0644 0.9591
C 1.4521 0.1202 2.1818
C 2.6569 -0.7906 2.0985
C -0.5254 0.7831 0.7566
C -0.8269 0.5650 -0.7255
N 0.0423 -0.5327 -1.0602
C -0.1307 -1.3770 -2.2202
C 0.9299 -2.4831 -2.2909
Pd 2.7802 -1.8697 -0.2955
C 4.5364 -3.0865 -0.5360
N 4.5344 -4.4410 -0.5560
C 3.3333 -5.2619 -0.4059
C 3.4091 -6.1973 0.8047
C 3.5970 -5.4730 2.1418
C 3.6703 -6.5045 3.2668
C 5.8365 -4.7991 -0.7277
C 6.5961 -3.6616 -0.8129
C 7.9822 -3.6981 -1.0013
C 8.6007 -4.9518 -1.0896
C 7.8334 -6.1302 -1.0005
C 6.4345 -6.0674 -0.8235
N 5.7944 -2.5870 -0.7072
C 6.2139 -1.1866 -0.8192
C 5.4374 -0.3175 0.1330
C 5.5507 -0.8387 1.5891
C 6.9452 -0.8781 2.1470
H 0.7922 -0.1813 3.0192
H 1.7809 1.1757 2.3413
H 2.5040 -1.8298 1.7922
H 3.1728 -0.7259 3.0763
H 3.1871 -0.3771 1.2758
H -0.4612 1.8693 0.9868
H -1.2976 0.3000 1.3946
H -0.4719 1.4411 -1.3154
H -1.9095 0.3902 -0.9010
H -0.1059 -0.7591 -3.1418
H -1.1442 -1.8425 -2.1527
H 1.9352 -2.0525 -2.4269
H 0.6794 -3.1252 -3.1663
H 0.8969 -3.1086 -1.3799
H 3.1879 -5.8675 -1.3242
H 2.4463 -4.6006 -0.2846
H 4.2427 -6.9092 0.6697
H 2.4643 -6.7808 0.8439
H 2.7456 -4.7819 2.3268
H 4.5397 -4.8828 2.1329
H 2.7339 -7.1025 3.2995
H 3.8090 -6.0011 4.2449
H 4.5263 -7.1938 3.0962
H 8.5773 -2.7986 -1.0766
H 9.6735 -5.0103 -1.2303
H 8.3311 -7.0890 -1.0734
H 5.8727 -6.9860 -0.7706
H 6.0610 -0.8298 -1.8598
H 7.2886 -1.0726 -0.5898
H 4.4086 -0.3272 -0.2799
H 5.7632 0.7385 0.0738
H 5.1037 -1.8582 1.6761
H 5.0363 -0.1369 2.2627
H 7.5860 -1.5612 1.5611
H 6.8899 -1.2618 3.1880
H 7.3347 0.1590 2.1491
