24
 
C -0.3280 -1.0820 0.0030
N -1.1342 -0.0413 -0.2782
H -2.1516 -0.0756 -0.5080
C -0.3562 1.0513 -0.1623
Cl -0.9094 2.6993 -0.3902
C 0.9210 0.6486 0.1667
Cl 2.3250 1.6733 0.3988
N 0.9286 -0.6902 0.2824
Pd -0.9444 -3.1417 0.0167
N -1.5465 -5.1535 0.0300
C -0.6362 -6.1139 0.3476
C -0.9761 -7.4728 0.2351
C 0.0285 -8.5555 0.5000
C -2.2745 -7.8114 -0.1669
C -3.1987 -6.8075 -0.4591
C -2.8067 -5.4703 -0.3687
H 1.7404 -1.3044 0.5138
H 0.3657 -5.8168 0.6300
H 1.0074 -8.1377 0.8164
H 0.1881 -9.1421 -0.4313
H -0.3447 -9.2358 1.2928
H -2.5651 -8.8505 -0.2642
H -4.2018 -7.0644 -0.7739
H -3.5029 -4.6813 -0.6202
