61
 
C 1.0240 -0.6530 -0.0550
N 1.0143 0.6595 -0.0772
C 2.0979 1.6666 -0.2435
C 3.3560 1.4593 -0.9315
C 3.7447 0.2206 -1.6745
C 4.3128 2.5134 -1.0350
C 4.0692 3.7785 -0.4993
C 5.0150 4.9404 -0.5976
C 2.8795 4.0082 0.1283
C 1.9128 3.0176 0.2463
C 0.6852 3.5142 0.9014
C -0.3751 1.0573 0.0573
C -1.1778 -0.1596 -0.1999
N -0.2700 -1.2142 0.0746
C -0.6492 -2.5631 0.4040
C -1.9049 -3.1048 -0.0536
C -2.9941 -2.4186 -0.8655
C -2.2312 -4.4296 0.2376
C -1.3945 -5.2454 0.9791
C -1.7782 -6.6673 1.2420
C -0.2128 -4.7297 1.4925
C 0.1749 -3.4033 1.2432
C 1.4199 -2.9561 1.9880
Pd 2.7802 -1.8697 -0.2955
N 4.4956 -3.0582 -0.5304
C 5.6215 -2.8539 0.2121
F 5.6308 -1.9138 1.1867
C 6.7789 -3.6087 -0.0399
C 6.7736 -4.5543 -1.0667
C 5.6145 -4.7493 -1.8152
C 4.4743 -3.9919 -1.5234
H 2.9159 -0.4830 -1.8021
H 4.6312 -0.2390 -1.1880
H 4.0226 0.5035 -2.7157
H 5.2455 2.3635 -1.5693
H 5.9411 4.6824 -1.1425
H 5.2702 5.2913 0.4274
H 4.5058 5.7813 -1.1241
H 2.6945 5.0038 0.5235
H 0.6659 4.5851 1.1643
H 0.5591 2.9290 1.8318
H -0.0838 3.4890 0.1224
H -0.7135 1.7707 -0.7253
H -0.5784 1.3491 1.1044
H -1.3358 -0.1625 -1.3011
H -2.0891 -0.1326 0.4432
H -2.9280 -1.3886 -1.1887
H -3.9304 -2.4277 -0.2679
H -3.1349 -2.9681 -1.8140
H -3.1661 -4.8347 -0.1312
H -2.7476 -6.9175 0.7597
H -1.8730 -6.8352 2.3337
H -0.9994 -7.3378 0.8234
H 0.4035 -5.3745 2.1099
H 1.8955 -3.7813 2.5609
H 1.1855 -2.1373 2.6982
H 2.2235 -2.6345 1.3691
H 7.6807 -3.4562 0.5395
H 7.6667 -5.1287 -1.2878
H 5.6067 -5.4708 -2.6232
H 3.5801 -4.1211 -2.1177
