56
 
C 2.3270 0.0340 0.0000
N 1.5344 1.1210 0.0543
C 2.0230 2.4990 0.0221
C 1.6166 3.2920 1.2646
C 2.1179 2.6612 2.5661
C 3.6452 2.5842 2.6151
C 0.2706 0.6357 0.0284
C 0.3111 -0.7431 -0.0161
C -0.8714 -1.5033 -0.0154
C -2.0993 -0.8254 -0.0018
C -2.1389 0.5806 0.0071
C -0.9485 1.3294 0.0228
N 1.6014 -1.1672 -0.0517
C 2.0106 -2.6495 -0.0472
C 2.7312 -3.0709 1.2462
C 2.2043 -2.5004 2.3908
C 2.9423 -2.4551 3.5586
C 4.1759 -3.0953 3.6512
C 4.6328 -3.8768 2.5880
C 3.9182 -3.8727 1.3709
Pd 4.4769 0.0580 0.0014
N 6.5767 0.0815 0.0028
C 7.2454 -1.0643 -0.3332
O 6.5724 -2.1495 -0.7582
C 5.2056 -2.1855 -0.8185
C 8.6420 -1.1268 -0.2517
C 9.3566 -0.0011 0.1436
C 8.6727 1.1816 0.4215
C 7.2698 1.2062 0.3481
H 1.6317 3.0044 -0.8860
H 3.1339 2.4914 -0.0763
H 0.5142 3.3714 1.3124
H 2.0218 4.3232 1.1744
H 1.6842 1.6450 2.6897
H 1.7585 3.2909 3.4093
H 4.0544 1.9243 1.8085
H 3.9571 2.1720 3.5960
H 4.0689 3.6058 2.5061
H -0.8816 -2.5820 -0.0291
H -3.0238 -1.3898 -0.0072
H -3.0973 1.0845 0.0036
H -1.0038 2.4069 0.0262
H 2.5953 -2.9192 -0.9470
H 1.1122 -3.2956 -0.0853
H 1.2490 -2.0043 2.3407
H 2.5547 -1.8679 4.3708
H 4.7618 -2.9862 4.5542
H 5.5709 -4.4197 2.7022
H 4.3616 -4.4199 0.5429
H 4.8980 -3.1530 -1.2613
H 4.7886 -1.3775 -1.4327
H 4.8443 -2.0603 0.2043
H 9.1713 -2.0419 -0.4914
H 10.4378 -0.0438 0.2199
H 9.2324 2.0649 0.7010
H 6.7435 2.1227 0.5720
