39
 
C 1.0240 -0.6530 -0.0550
N 1.0389 0.6230 -0.0857
C 2.2331 1.4174 -0.2137
C -0.2849 1.1665 0.0942
C -1.1950 -0.0646 -0.0275
N -0.2778 -1.1688 0.1353
C -0.6457 -2.5321 0.3905
C -2.0052 -2.8882 0.5422
C -2.3746 -4.2039 0.8369
C -1.3991 -5.1890 0.9809
C -0.0507 -4.8584 0.8370
C 0.3287 -3.5409 0.5499
Pd 2.7802 -1.8697 -0.2955
N 4.4956 -3.0582 -0.5304
C 5.7090 -2.4697 -0.5665
C 5.7521 -0.9979 -0.3806
C 6.8550 -3.2477 -0.8037
C 6.7092 -4.6238 -1.0224
C 5.4380 -5.2015 -0.9924
C 4.3314 -4.3914 -0.7371
H 3.1202 0.7606 -0.3177
H 2.3517 2.0546 0.6891
H 2.1513 2.0702 -1.1077
H -0.5585 1.9376 -0.6566
H -0.3300 1.5918 1.1219
H -1.6024 -0.1445 -1.0616
H -2.0155 -0.0181 0.7174
H -2.7924 -2.1538 0.4475
H -3.4203 -4.4584 0.9599
H -1.6889 -6.2068 1.2118
H 0.7036 -5.6250 0.9594
H 1.3756 -3.3314 0.4800
H 4.6814 -0.6445 -0.2508
H 6.2129 -0.5353 -1.2802
H 6.3781 -0.7552 0.5053
H 7.8393 -2.7993 -0.8413
H 7.5746 -5.2415 -1.2280
H 5.3081 -6.2606 -1.1779
H 3.3348 -4.8139 -0.7302
