29
 
C -0.2771 -1.1541 -0.0109
N -1.2185 -0.0567 -0.0014
C -2.7533 -0.1047 0.0012
C -0.4125 1.1266 -0.0009
C -0.7002 2.6933 0.0017
C 0.9106 0.7129 -0.0035
C 2.1366 1.5924 -0.0085
N 0.9883 -0.6355 -0.0049
C 2.2754 -1.3339 0.0107
Pd -0.5218 -3.4431 -0.0076
C -0.8261 -5.5767 0.0058
N 0.1276 -6.5169 -0.1714
C -0.5276 -7.6947 -0.0907
C -1.8403 -7.4441 0.1694
O -2.0043 -6.1408 0.2050
H -3.1762 -1.1389 0.0006
H -3.2319 0.3958 -0.8830
H -3.2301 0.3943 0.8871
H -1.7629 2.9120 0.0032
H -0.2574 3.2439 -0.8821
H -0.2552 3.2422 0.8855
H 1.8904 2.6508 -0.0127
H 2.7464 1.3730 -0.9038
H 2.7528 1.3805 0.8829
H 3.1160 -0.6136 0.0158
H 2.3922 -1.9515 -0.8803
H 2.3803 -1.9451 0.9107
H -0.0840 -8.6689 -0.2069
H -2.6091 -8.1784 0.3089
