38
 
C 0.9010 -0.6430 -0.0020
N -0.3501 -1.1209 0.0516
C -0.7370 -2.5230 0.0422
C -1.1615 -0.0490 0.0404
C -0.3733 1.0850 -0.0144
N 0.9292 0.7116 -0.0505
C 2.0966 1.5825 -0.0927
C 1.9587 2.9874 -0.1203
C 3.0862 3.8184 -0.1780
C 4.3680 3.2688 -0.2186
C 4.5268 1.8907 -0.1733
C 3.4103 1.0648 -0.0931
Pd 2.6584 -1.8814 -0.0135
N 4.3750 -3.0911 -0.0247
C 4.3199 -4.2884 0.6063
C 5.4820 -5.0389 0.7668
C 6.6857 -4.5970 0.1832
O 7.8451 -5.2929 0.3087
C 8.0072 -6.4021 1.1157
C 6.6883 -3.3920 -0.5320
C 5.5224 -2.6241 -0.5817
H 0.1712 -3.1687 0.0200
H -1.3379 -2.7253 -0.8727
H -1.3460 -2.7585 0.9372
H -2.2431 -0.0842 0.0589
H -0.7455 2.0991 -0.0282
H 0.9885 3.4573 -0.0922
H 2.9667 4.8923 -0.1946
H 5.2406 3.9055 -0.2721
H 5.5176 1.4512 -0.1916
H 3.6279 0.0463 -0.0124
H 3.4024 -4.6014 1.0865
H 5.4362 -5.9428 1.3568
H 9.0434 -6.7834 1.0256
H 7.3058 -7.2063 0.8086
H 7.8203 -6.1266 2.1776
H 7.5883 -3.0347 -1.0185
H 5.5104 -1.6773 -1.1072
