60
 
C 2.3270 0.0340 0.0000
N 1.5396 1.1279 0.0245
C 2.0418 2.5045 0.0456
C 2.8938 2.7416 -1.2039
C 3.4762 4.1542 -1.2953
C 4.2713 4.2956 -2.5943
C 0.2733 0.6444 0.0151
C 0.3114 -0.7371 -0.0073
C -0.8717 -1.4970 -0.0076
C -2.0994 -0.8190 -0.0012
C -2.1386 0.5876 0.0104
C -0.9466 1.3388 0.0225
N 1.6012 -1.1639 -0.0207
C 2.0204 -2.6407 -0.0293
C 2.7438 -3.0471 1.2506
C 2.1585 -2.5316 2.3930
C 2.8647 -2.4741 3.5755
C 4.1097 -3.0848 3.6925
C 4.6190 -3.8354 2.6269
C 3.9574 -3.7973 1.3763
Pd 4.4769 0.0580 0.0014
N 6.5767 0.0815 0.0028
C 7.1667 1.2964 0.1194
C 8.5544 1.4331 0.0371
C 9.3746 0.3017 -0.2084
N 10.8041 0.4219 -0.4746
C 11.5248 1.6935 -0.4548
C 11.6271 -0.7032 -0.9170
C 8.7131 -0.9558 -0.2250
C 7.3211 -1.0442 -0.1109
H 2.6740 2.6473 0.9495
H 1.2019 3.2294 0.0818
H 2.2470 2.5708 -2.0944
H 3.7422 2.0120 -1.1843
H 4.1483 4.3439 -0.4304
H 2.6596 4.9096 -1.2881
H 5.0986 3.5539 -2.6212
H 4.7025 5.3146 -2.6754
H 3.6088 4.1211 -3.4704
H -0.8822 -2.5761 -0.0145
H -3.0240 -1.3847 -0.0079
H -3.0993 1.0881 0.0106
H -0.9990 2.4179 0.0333
H 2.6179 -2.9007 -0.9264
H 1.1210 -3.2912 -0.0645
H 1.1796 -2.0826 2.3291
H 2.4356 -1.9075 4.3816
H 4.6590 -2.9780 4.6184
H 5.5527 -4.3775 2.7739
H 4.4236 -4.3192 0.5437
H 6.5447 2.1701 0.2722
H 8.9246 2.4387 0.1313
H 10.9301 2.5712 -0.1721
H 11.9326 1.9055 -1.4689
H 12.3740 1.6343 0.2575
H 11.1057 -1.6610 -1.0330
H 12.4653 -0.8640 -0.2087
H 12.0455 -0.4833 -1.9240
H 9.2226 -1.8904 -0.3503
H 6.8408 -2.0112 -0.1628
