49
 
C 2.3270 0.0340 0.0000
N 1.5565 1.1348 -0.0134
C 2.1053 2.4987 -0.0143
C 3.6670 2.4470 -0.0007
C 1.6179 3.2980 -1.2354
C 0.2808 0.6610 -0.0117
C 0.3090 -0.7209 -0.0076
C -0.8766 -1.4786 0.0106
C -2.1022 -0.7971 0.0084
C -2.1350 0.6090 -0.0053
C -0.9401 1.3558 -0.0091
N 1.5959 -1.1509 -0.0023
C 2.0248 -2.6116 0.0184
C 2.5872 -3.0232 1.3760
C 1.7885 -2.6694 2.4595
C 2.2582 -2.7618 3.7581
C 3.5121 -3.3050 4.0180
C 4.2719 -3.8329 2.9679
C 3.8243 -3.6886 1.6331
Pd 4.4769 0.0580 0.0014
N 6.5767 0.0815 0.0028
C 7.1790 1.3075 0.0171
F 6.4334 2.4327 0.0288
C 8.5684 1.4264 0.0386
C 9.3492 0.2763 0.0448
F 10.7023 0.3785 0.0560
C 8.7301 -0.9761 0.0560
C 7.3260 -1.0575 0.0385
F 6.7204 -2.2673 0.0936
H 1.7512 3.0204 0.9016
H 4.0732 1.9308 -0.8855
H 4.0480 1.9155 0.8840
H 4.0624 3.4817 0.0189
H 1.9421 2.8204 -2.1827
H 2.0196 4.3332 -1.1960
H 0.5153 3.3913 -1.2536
H -0.8884 -2.5587 0.0316
H -3.0301 -1.3582 0.0202
H -3.0935 1.1142 -0.0081
H -0.9982 2.4318 -0.0064
H 2.6997 -2.8602 -0.8271
H 1.1354 -3.2657 -0.1173
H 0.8055 -2.2634 2.2829
H 1.6418 -2.3781 4.5543
H 3.8749 -3.3241 5.0383
H 5.2181 -4.3135 3.2064
H 4.4587 -4.0777 0.8414
H 9.0330 2.4054 0.0565
H 9.3394 -1.8696 0.0882
