90
 
P 0.9730 -0.0775 -0.0571
C 0.2168 -0.5214 -1.8232
C -1.3187 -0.5348 -1.9570
C 0.7316 0.4034 -2.9668
C 0.6931 -1.9109 -2.3077
C 0.4777 -1.5041 1.1977
C 1.0716 -2.8741 0.8624
C 0.9947 -1.2344 2.6349
C -1.0547 -1.7136 1.3702
C 0.3468 1.7248 0.3596
C -1.1920 1.8153 0.4114
C 0.7615 2.1704 1.7704
C 0.8261 2.8472 -0.5835
Pd 3.4330 -0.0775 -0.0571
P 5.8930 -0.0775 -0.0571
C 6.8794 -1.6506 0.1955
C 6.7419 -2.4544 1.5598
C 5.3233 -2.9812 1.8732
C 4.7885 -3.8229 0.7086
C 4.8796 -3.0121 -0.5875
C 6.3543 -2.5997 -0.8949
C 6.1969 0.6341 -1.7943
C 5.6343 2.0843 -1.9330
C 6.5490 3.1418 -1.2702
C 7.9252 3.1593 -1.9498
C 8.5795 1.7834 -1.8184
C 7.6600 0.6589 -2.3559
C 6.4088 0.9831 1.4338
C 5.4798 1.6375 2.2909
C 4.0546 1.4616 2.2021
C 5.8590 2.5889 3.2465
C 7.1803 2.9209 3.4163
C 8.1412 2.2791 2.6427
C 7.7685 1.3159 1.6742
H -1.7739 0.4491 -1.9480
H -1.8190 -1.1769 -1.2503
H -1.6200 -0.9324 -2.9470
H 0.3242 1.4097 -2.9614
H 0.3510 0.0426 -3.9519
H 1.8402 0.4304 -3.0404
H 0.2029 -2.7110 -1.7739
H 1.8030 -2.0019 -2.3405
H 0.3223 -2.1310 -3.3342
H 2.1590 -2.7729 0.8517
H 0.7347 -3.3610 -0.0360
H 0.7560 -3.6263 1.6222
H 2.0970 -1.1273 2.6649
H 0.7190 -2.0836 3.3050
H 0.5030 -0.4010 3.1424
H -1.5515 -2.0758 0.4750
H -1.5776 -0.8478 1.8061
H -1.2718 -2.5328 2.0857
H -1.6289 1.0362 1.0384
H -1.6551 1.8365 -0.5674
H -1.5334 2.7808 0.8406
H 0.4559 1.4968 2.5619
H 0.3168 3.1503 2.0496
H 1.8026 2.3444 1.8262
H 0.3789 2.7907 -1.5702
H 1.9307 2.9050 -0.6513
H 0.4420 3.8303 -0.2267
H 7.9534 -1.4036 0.0729
H 7.1143 -1.8915 2.4397
H 7.3831 -3.3676 1.4770
H 4.6545 -2.1159 2.0669
H 5.3221 -3.6198 2.7916
H 3.7441 -4.1194 0.9212
H 5.3467 -4.7766 0.6008
H 4.2334 -2.1222 -0.4471
H 4.4551 -3.5869 -1.4318
H 6.4074 -2.0870 -1.8726
H 7.0027 -3.4982 -0.9784
H 5.6230 -0.0295 -2.4715
H 4.6044 2.1473 -1.5196
H 5.5833 2.3637 -3.0128
H 6.6691 2.9292 -0.1966
H 6.0982 4.1531 -1.3539
H 8.5802 3.9283 -1.4778
H 7.8113 3.4318 -3.0232
H 8.8206 1.6360 -0.7682
H 9.5511 1.7819 -2.3637
H 8.1405 -0.3340 -2.2525
H 7.5800 0.8610 -3.4492
H 3.8506 0.5952 1.6454
H 3.7470 2.4227 1.7500
H 3.5878 1.2222 3.1777
H 5.1051 3.0935 3.8488
H 7.4383 3.6782 4.1491
H 9.1756 2.5585 2.7893
H 8.5577 0.8709 1.1036
