46
 
C 2.3270 0.0340 0.0000
N 1.5664 1.1389 0.0160
C 2.1302 2.5003 0.0238
C 3.6974 2.4509 0.0036
C 1.6248 3.3134 -1.1817
C 0.2888 0.6670 0.0076
C 0.3155 -0.7139 -0.0158
C -0.8607 -1.4796 -0.0042
C -2.0871 -0.8037 0.0053
C -2.1240 0.6037 0.0107
C -0.9318 1.3569 0.0202
N 1.5978 -1.1372 -0.0288
C 2.0496 -2.5734 0.0015
C 2.7443 -2.8793 1.3130
C 2.1053 -2.4294 2.4706
C 2.7505 -2.4670 3.6986
C 4.0230 -3.0250 3.8074
C 4.6289 -3.6052 2.6879
C 3.9993 -3.5302 1.4307
Pd 4.4769 0.0580 0.0014
O 6.5267 0.0810 0.0028
C 7.2292 1.0078 -0.5968
N 8.5486 0.8097 -0.4168
C 8.6174 -0.3113 0.3311
C 7.3353 -0.7533 0.6014
H 1.7977 3.0131 0.9515
H 4.0845 1.9529 -0.9035
H 4.1044 1.9109 0.8763
H 4.1000 3.4826 0.0277
H 1.9229 2.8397 -2.1401
H 2.0355 4.3446 -1.1436
H 0.5232 3.4159 -1.1784
H -0.8605 -2.5605 -0.0019
H -3.0105 -1.3713 0.0092
H -3.0832 1.1048 0.0132
H -0.9893 2.4320 0.0394
H 2.6854 -2.8281 -0.8727
H 1.1742 -3.2545 -0.0468
H 1.1200 -1.9908 2.4047
H 2.2615 -2.0315 4.5565
H 4.5296 -3.0100 4.7637
H 5.6001 -4.0769 2.8004
H 4.5066 -3.9606 0.5732
H 6.8015 1.8475 -1.1297
H 9.5432 -0.7682 0.6527
H 7.0448 -1.6266 1.1685
