28
 
P 1.0799 -0.0551 0.0240
O -0.1357 0.1590 -1.1388
C 0.3667 1.1920 -1.9979
O 0.6130 -1.6075 0.5491
C 1.2164 -1.8440 1.7993
O 0.7655 1.4974 0.6768
C 1.4094 1.6565 1.9028
Pd 3.5399 -0.0551 0.0240
N 5.6399 -0.0551 0.0240
C 6.2848 -0.6956 1.0348
F 5.5654 -1.3038 2.0092
C 7.6809 -0.7186 1.0736
C 8.4007 -0.0823 0.0599
F 9.7563 -0.0966 0.0782
C 7.7192 0.5683 -0.9723
C 6.3205 0.5736 -0.9709
F 5.6393 1.1951 -1.9638
H 0.0314 1.0541 -3.0432
H 1.4885 1.2547 -2.0856
H 0.0133 2.1832 -1.6386
H 0.7602 -2.7501 2.2477
H 1.0166 -1.0489 2.5428
H 2.3064 -2.0223 1.6824
H 1.2878 2.7212 2.1945
H 2.4992 1.4505 1.8208
H 0.8971 1.0815 2.6960
H 8.1975 -1.2237 1.8798
H 8.2685 1.0618 -1.7636
