14
 
N -0.6590 -1.2280 -0.0510
C -1.4168 -0.1008 0.0079
F -2.7677 -0.1951 -0.0389
C -0.7980 1.1542 0.0465
C 0.5978 1.2288 0.0506
C 1.3550 0.0567 0.0151
C 0.6997 -1.1746 -0.0467
Pd -1.5756 -3.1044 -0.2726
C -2.5141 -5.0254 -0.4994
O -3.0458 -6.1137 -0.6279
H -1.3903 2.0599 0.0570
H 1.0925 2.1914 0.0734
H 2.4366 0.1010 0.0190
H 1.2699 -2.0933 -0.0923
