26
 
N -1.3922 -0.1092 -0.0707
C -0.5588 0.1939 -1.1503
C 0.8235 -0.0343 -1.0839
Cl 1.8334 -0.0145 -2.5373
C 1.3713 -0.2717 0.0978
C 0.5800 -0.2748 1.2421
C -0.8193 -0.3439 1.1312
Pd -3.4772 -0.1987 -0.2788
N -5.5559 -0.2901 -0.5245
C -6.3601 -0.3970 0.5620
C -5.7695 -0.4459 1.9504
C -7.7589 -0.4501 0.3576
C -8.2723 -0.6990 -0.9140
C -7.4817 -0.6029 -1.9671
C -6.1447 -0.2422 -1.7855
H -0.9618 0.5847 -2.0345
H 2.3922 -0.4463 0.1542
H 1.0306 -0.2387 2.1807
H -1.4112 -0.5670 1.9584
H -4.6941 -0.3933 1.8961
H -6.0518 -1.3702 2.4291
H -6.1372 0.3779 2.5334
H -8.4097 -0.3190 1.1614
H -9.2689 -0.9536 -1.0488
H -7.8659 -0.7906 -2.9108
H -5.5815 0.0465 -2.6179
