84
 
P 0.9035 0.0171 0.0201
O -0.1675 -1.3046 -0.1451
C 0.3118 -2.0312 -1.2931
O 0.3707 0.7129 1.4951
C 0.5145 -0.1614 2.5751
O 0.4116 0.7200 -1.4681
C -1.0151 0.8458 -1.4387
Pd 3.3635 0.0171 0.0201
C 5.5135 0.0171 0.0201
N 6.2273 -1.1192 -0.1516
C 5.8073 -2.6093 -0.1547
C 6.6337 -3.7343 -0.6982
C 7.9211 -3.6096 -1.5222
C 8.4955 -4.9591 -2.0751
C 7.5938 -2.7845 -2.7611
C 6.2036 -5.0982 -0.5596
C 5.0601 -5.4678 0.0257
C 4.2454 -4.5178 0.4656
C 4.5342 -3.1279 0.3873
C 3.4180 -2.2720 0.8520
C 2.0827 -3.0163 1.2235
C 3.9031 -1.4193 1.9943
C 7.6369 -0.6892 -0.1546
C 7.6158 0.8322 -0.3805
N 6.2840 1.2244 0.0156
C 5.8451 2.4981 0.5666
C 4.5560 3.0818 0.1943
C 3.5604 2.5707 -0.9016
C 2.7341 3.7025 -1.5663
C 4.1523 1.8110 -2.1135
C 4.1375 4.2437 0.8900
C 4.8889 4.8400 1.8670
C 6.1178 4.3448 2.1916
C 6.6581 3.2042 1.5682
C 8.0947 2.8101 2.0046
C 8.7807 3.7186 3.0343
C 8.1904 1.3845 2.5816
H -0.0007 -3.0925 -1.2577
H 1.4257 -2.0522 -1.4156
H -0.0801 -1.6135 -2.2434
H 0.1819 0.3658 3.4879
H 1.5614 -0.3835 2.7764
H -0.1224 -1.0606 2.4750
H -1.3677 1.4087 -2.3202
H -1.3837 1.3586 -0.5227
H -1.5562 -0.1267 -1.5279
H 8.7110 -3.1552 -0.8983
H 7.7351 -5.4752 -2.7174
H 8.7893 -5.6470 -1.2501
H 9.3778 -4.8153 -2.7221
H 6.8188 -3.3115 -3.3603
H 8.5094 -2.6497 -3.3708
H 7.1888 -1.7960 -2.4996
H 6.7046 -5.9802 -0.9098
H 4.7663 -6.5123 0.1070
H 3.3591 -4.9726 0.8545
H 3.2117 -1.7771 -0.0851
H 2.1732 -3.7884 2.0141
H 1.6697 -3.5381 0.3289
H 1.3170 -2.3752 1.6319
H 3.8202 -1.9675 2.9459
H 3.3712 -0.4913 1.9351
H 4.9584 -1.1184 1.9932
H 8.3615 -1.0716 -0.8835
H 8.0553 -0.9469 0.8435
H 7.7273 1.1249 -1.4463
H 8.4932 1.2808 0.0717
H 2.8071 1.9678 -0.3790
H 3.4211 4.4448 -2.0272
H 2.0357 4.2066 -0.8738
H 2.0653 3.2962 -2.3558
H 4.8079 2.4774 -2.7068
H 3.3283 1.4332 -2.7596
H 4.7013 0.9021 -1.9255
H 3.2057 4.7439 0.7126
H 4.5186 5.7209 2.3767
H 6.6293 4.8986 2.9592
H 8.7205 2.9630 1.1020
H 8.2137 3.6770 3.9900
H 8.8399 4.7623 2.6593
H 9.8172 3.3699 3.2292
H 7.8292 1.3082 3.6199
H 9.2468 1.0252 2.5176
H 7.5351 0.6914 2.0683
