23
 
N -1.3987 -0.1285 -0.0621
C -0.6840 -1.2246 0.4718
C 0.6443 -1.0711 0.8900
C 1.3202 0.0038 0.5281
Cl 2.9962 0.2152 1.0646
C 0.7001 0.9622 -0.2750
C -0.6985 0.9530 -0.4385
Pd -3.4716 -0.2042 -0.2855
N -5.5592 -0.2907 -0.5070
C -6.3273 0.8707 -0.6693
C -7.7181 0.8289 -0.5092
C -8.3329 -0.3369 -0.4906
F -9.6548 -0.3816 -0.3347
C -7.5925 -1.5086 -0.6366
C -6.1934 -1.4793 -0.4860
H -1.1434 -2.1579 0.5747
H 1.1093 -1.7883 1.4765
H 1.2769 1.6907 -0.7427
H -1.1927 1.7726 -0.8445
H -5.8673 1.7803 -0.8901
H -8.2736 1.6989 -0.4125
H -8.0799 -2.4040 -0.8431
H -5.6513 -2.3616 -0.3776
