40
 
N -1.4206 -0.3286 -0.0215
C -0.6019 0.5471 -0.6820
C 0.7965 0.3893 -0.6737
F 1.6108 1.2287 -1.3671
C 1.3578 -0.6324 0.0744
C 0.5291 -1.4610 0.8283
C -0.8661 -1.3207 0.7424
Pd -3.4695 -0.2641 -0.2379
P -5.8985 -0.2305 -0.4544
N -6.6897 1.3291 -0.8082
C -6.4908 2.3993 0.2065
C -6.1258 1.8457 -2.0650
N -6.2177 -1.1280 -2.0419
C -5.7550 -2.5525 -2.0857
C -7.6307 -1.1540 -2.4298
N -6.5875 -1.1029 0.9437
C -6.2241 -0.4428 2.1794
C -8.0606 -1.2565 0.9287
H -1.0094 1.3984 -1.2053
H 2.4333 -0.7704 0.0739
H 0.9701 -2.2266 1.4451
H -1.5048 -2.0331 1.2374
H -7.0581 2.2386 1.0930
H -6.9307 3.3370 -0.1359
H -5.4692 2.6985 0.3676
H -6.1688 1.0987 -2.8890
H -5.1090 2.2084 -1.9681
H -6.5620 2.8112 -2.3546
H -4.6993 -2.6983 -1.9839
H -5.8992 -3.0551 -3.0502
H -6.3022 -3.2367 -1.4605
H -7.9652 -0.1213 -2.6029
H -8.2238 -1.6614 -1.6666
H -7.7368 -1.7230 -3.3879
H -5.1296 -0.2875 2.2383
H -6.6495 -0.9834 3.0373
H -6.7838 0.4717 2.3158
H -8.4565 -1.9183 0.1988
H -8.6164 -0.3366 0.9748
H -8.4469 -1.7535 1.8151
