27
 
N -1.4036 -0.1394 -0.0467
C -0.7127 1.0716 0.0205
C 0.6810 1.1208 -0.1171
C 1.3868 -0.0101 -0.0074
Cl 3.1431 0.0288 -0.1869
C 0.7073 -1.1970 0.2459
C -0.6829 -1.2752 0.0741
Pd -3.4719 -0.2352 -0.2817
N -5.5543 -0.3149 -0.5173
C -6.2286 -1.5230 -0.5028
C -7.5624 -1.6432 -0.9440
O -8.1441 -2.8672 -1.2080
C -7.4195 -4.0520 -1.0475
C -8.2586 -0.5053 -1.1038
C -7.6731 0.7207 -0.8189
C -6.2846 0.8180 -0.6662
H -1.2282 1.9849 0.1344
H 1.1926 2.0137 -0.2915
H 1.2518 -2.0416 0.5413
H -1.1714 -2.2017 0.0563
H -5.7420 -2.3989 -0.1760
H -8.0160 -4.9147 -1.3005
H -7.0951 -4.1452 -0.0158
H -6.5392 -4.0395 -1.6825
H -9.2455 -0.5726 -1.4328
H -8.2773 1.5728 -0.7402
H -5.8080 1.7552 -0.6724
