31
 
N -1.4002 -0.0144 -0.0195
C -0.8358 0.9525 0.7900
C 0.5300 1.2482 0.7147
C 1.3387 0.4259 0.0735
F 2.6390 0.7058 0.0009
C 0.8223 -0.7250 -0.5177
C -0.5667 -0.8517 -0.7079
Pd -3.4673 -0.1474 -0.2624
N -5.5581 -0.2529 -0.5000
C -6.1767 -1.4707 -0.6544
N -5.4119 -2.7153 -0.6418
C -4.1782 -2.8182 0.1378
C -5.8685 -3.8670 -1.4239
C -7.5892 -1.4800 -0.7981
C -8.2690 -0.3024 -1.0979
C -7.6541 0.8565 -0.9662
C -6.3332 0.8869 -0.5134
H -1.4376 1.4795 1.4558
H 0.9202 2.0977 1.1641
H 1.4690 -1.4789 -0.8286
H -0.9498 -1.5959 -1.3327
H -3.9972 -1.9736 0.6197
H -3.3471 -3.0339 -0.5079
H -4.2709 -3.6003 0.8708
H -6.7756 -3.6311 -1.9370
H -6.0478 -4.7039 -0.7725
H -5.1240 -4.1379 -2.1514
H -8.1263 -2.3618 -0.6962
H -9.2561 -0.3217 -1.4181
H -8.1624 1.7320 -1.1918
H -5.9203 1.7908 -0.2052
