60
 
P 1.0808 -0.0358 0.0467
O 0.0883 -1.2715 -0.5625
C 0.6015 -1.5695 -1.8762
C 2.1315 -1.8687 -1.9860
O 0.5482 0.1039 1.6615
C 0.7299 -1.0782 2.3794
C 0.1734 -0.8301 3.7795
O 0.6035 1.1316 -1.1210
C -0.8164 1.2630 -1.0261
C -1.3557 2.2162 -2.0742
Pd 3.5408 -0.0358 0.0467
P 6.0008 -0.0358 0.0467
C 6.7165 0.4251 -1.5465
C 7.0360 1.7642 -1.8328
C 7.3116 2.1594 -3.1473
C 7.2729 1.2263 -4.1860
C 6.9663 -0.1075 -3.9123
C 6.6766 -0.5046 -2.6027
C 6.3934 1.3071 1.1962
C 7.5748 1.2179 1.9593
C 7.8804 2.1849 2.9212
C 7.0100 3.2533 3.1327
C 5.8377 3.3576 2.3756
C 5.5247 2.3856 1.4111
C 6.5505 -1.7313 0.3343
C 5.6385 -2.7664 0.5817
C 6.1057 -4.0581 0.8691
C 7.4798 -4.3194 0.9112
C 8.3915 -3.2913 0.6674
C 7.9300 -2.0035 0.3811
H 0.3589 -0.7529 -2.5934
H 0.0623 -2.4569 -2.2604
H 2.7949 -0.9961 -1.7417
H 2.3781 -2.1297 -3.0365
H 2.3991 -2.7192 -1.3290
H 1.8113 -1.3198 2.4622
H 0.1535 -1.9144 1.9281
H 0.7136 0.0142 4.2623
H 0.2817 -1.7356 4.4090
H -0.9050 -0.5598 3.7209
H -1.1265 1.6223 -0.0196
H -1.3507 0.3151 -1.2549
H -0.9682 3.2372 -1.8981
H -2.4679 2.2310 -2.0087
H -1.0736 1.8642 -3.0894
H 7.0103 2.5235 -1.0654
H 7.5167 3.1990 -3.3677
H 7.4554 1.5418 -5.2059
H 6.9132 -0.8249 -4.7221
H 6.3779 -1.5303 -2.4266
H 8.2605 0.3933 1.8305
H 8.7863 2.0991 3.5111
H 7.2428 3.9949 3.8881
H 5.1670 4.1881 2.5491
H 4.6072 2.4693 0.8463
H 4.5742 -2.5738 0.5730
H 5.4053 -4.8580 1.0698
H 7.8398 -5.3156 1.1385
H 9.4559 -3.4901 0.7083
H 8.6537 -1.2177 0.2069
