37
 
P 1.0651 0.0733 0.0197
O 0.0337 0.1450 1.3888
C 0.5542 -0.8658 2.2676
C -0.1405 -0.9061 3.6165
O 0.5381 1.4290 -0.8684
C 0.8001 2.6124 -0.1791
C 2.3026 2.8347 -0.0111
O 0.5850 -1.5105 -0.4482
C -0.8378 -1.4969 -0.5896
C -1.3772 -2.8805 -0.8886
Pd 3.5251 0.0733 0.0197
N 5.6251 0.0733 0.0197
C 6.2694 -0.5070 -1.0282
C 7.6605 -0.6308 -1.0182
C 8.3798 -0.1533 0.0799
Cl 10.1235 -0.3379 0.1354
C 7.7013 0.4537 1.1410
C 6.3069 0.5571 1.0926
H 1.6505 -0.7516 2.4637
H 0.3743 -1.8796 1.8483
H 0.1216 -0.0181 4.2244
H 0.2021 -1.8170 4.1636
H -1.2369 -0.9805 3.4761
H 0.2330 2.6546 0.7753
H 0.3968 3.4315 -0.8158
H 2.7553 2.0732 0.6551
H 2.4677 3.8280 0.4425
H 2.7879 2.7764 -1.0083
H -1.1549 -0.7992 -1.3941
H -1.3706 -1.2314 0.3499
H -0.9929 -3.2341 -1.8629
H -2.4896 -2.8309 -0.9278
H -1.0913 -3.5859 -0.0786
H 5.6970 -0.8958 -1.8598
H 8.1696 -1.1094 -1.8453
H 8.2456 0.8227 2.0008
H 5.7664 0.9987 1.9189
