32
 
N -0.6790 1.1930 0.0010
C 0.6707 1.2375 -0.0165
C 1.3220 2.5815 -0.0343
C 1.4076 0.0455 -0.0157
C 0.7253 -1.1830 0.0025
C 1.4757 -2.4834 0.0043
C -0.6780 -1.1903 0.0181
C -1.3740 0.0276 0.0165
C -2.8692 0.0803 0.0270
Pd -1.6914 3.0329 0.0055
N -2.7038 4.8727 0.0100
C -4.0618 4.8589 0.0487
F -4.7169 3.6728 0.0852
C -4.7752 6.0598 0.0560
C -4.0746 7.2679 0.0192
F -4.7489 8.4441 0.0240
C -2.6773 7.2598 -0.0225
C -2.0012 6.0355 -0.0245
F -0.6471 6.0016 -0.0654
H 0.5386 3.3862 -0.0360
H 1.9490 2.6766 -0.9454
H 1.9623 2.6935 0.8655
H 2.4903 0.0752 -0.0289
H 2.5744 -2.3214 -0.0087
H 1.1986 -3.0775 -0.8922
H 1.2181 -3.0637 0.9156
H -1.2167 -2.1308 0.0305
H -3.3103 -0.9401 0.0378
H -3.2257 0.6159 -0.8772
H -3.2161 0.6344 0.9236
H -5.8572 6.0533 0.0899
H -2.1260 8.1907 -0.0526
