33
 
N -0.6790 1.1930 0.0010
C 0.6709 1.2341 -0.0120
C 1.3248 2.5753 -0.0366
C 1.4062 0.0407 -0.0160
C 0.7234 -1.1869 0.0026
C 1.4737 -2.4876 0.0046
C -0.6796 -1.1922 0.0186
C -1.3747 0.0268 0.0124
C -2.8702 0.0765 0.0310
Pd -1.6914 3.0329 0.0055
N -2.7038 4.8727 0.0100
C -3.4638 4.4238 1.1828
N -3.8249 5.1646 -0.7322
C -3.9667 6.4452 -0.8179
C -2.8739 7.0925 -0.2474
C -2.0290 6.0899 0.1837
H 0.5396 3.3818 -0.0356
H 1.9492 2.6607 -0.9518
H 1.9728 2.6839 0.8575
H 2.4889 0.0682 -0.0336
H 2.5724 -2.3253 -0.0123
H 1.1945 -3.0837 -0.8899
H 1.2199 -3.0664 0.9179
H -1.2191 -2.1323 0.0357
H -3.3084 -0.9453 0.0481
H -3.2336 0.6096 -0.8713
H -3.2140 0.6289 0.9302
H -3.9559 3.4445 0.9467
H -4.2260 5.1474 1.5678
H -2.7648 4.2157 2.0188
H -4.8204 6.9282 -1.2738
H -2.6917 8.1571 -0.1786
H -1.0611 6.2100 0.6519
