20
 
O 1.0154 -0.0345 0.0926
C 0.6313 -0.8734 -0.9497
C 1.1678 -0.3246 -2.2599
C 1.1594 -2.2747 -0.6930
Pd 3.0654 -0.0345 0.0926
O 5.1154 -0.0345 0.0926
C 5.8871 0.4163 1.0480
N 7.1879 0.2601 0.7252
C 7.1650 -0.3183 -0.4952
C 5.8543 -0.4970 -0.8789
H -0.4805 -0.9008 -0.9883
H 2.2830 -0.3050 -2.2037
H 0.7702 0.7007 -2.4254
H 0.8334 -0.9657 -3.1049
H 2.2735 -2.2369 -0.6597
H 0.8239 -2.9605 -1.5015
H 0.7600 -2.6544 0.2724
H 5.5333 0.8537 1.9715
H 8.0432 -0.5913 -1.0651
H 5.4837 -0.9325 -1.7975
