46
 
O 0.9911 0.0452 -0.0888
C 0.5927 -0.2180 -1.3978
C 1.1090 0.8757 -2.3167
C 1.1126 -1.5801 -1.8267
Pd 3.0411 0.0452 -0.0888
P 5.5011 0.0452 -0.0888
C 6.2209 -1.5531 -0.5576
C 7.0355 -1.7538 -1.6855
C 7.3172 -3.0616 -2.1220
C 6.8020 -4.1675 -1.4365
C 6.0287 -3.9755 -0.2931
C 5.7394 -2.6785 0.1424
C 5.9103 1.2964 -1.3591
C 6.6514 2.4344 -0.9659
C 6.9638 3.4474 -1.8816
C 6.5490 3.3405 -3.2072
C 5.8240 2.2173 -3.6183
C 5.5002 1.1986 -2.7012
C 5.9579 0.3447 1.6384
C 4.9519 0.5239 2.5932
C 5.3162 0.9137 3.8975
C 6.6609 1.1201 4.2304
C 7.6404 0.9095 3.2592
O 8.8162 1.0918 3.5329
N 7.2736 0.5238 1.9880
H -0.5198 -0.2261 -1.4301
H 2.2239 0.8798 -2.2756
H 0.7062 1.8590 -1.9892
H 0.7621 0.6898 -3.3572
H 2.2264 -1.5687 -1.7924
H 0.7653 -1.8102 -2.8580
H 0.7172 -2.3639 -1.1451
H 7.4061 -0.9213 -2.2637
H 7.9046 -3.2249 -3.0160
H 6.9873 -5.1734 -1.7982
H 5.6201 -4.8318 0.2327
H 5.0837 -2.5579 0.9965
H 6.9896 2.5547 0.0546
H 7.5246 4.3203 -1.5635
H 6.7888 4.1303 -3.9125
H 5.5092 2.1461 -4.6516
H 4.9276 0.3488 -3.0421
H 3.8997 0.3937 2.2892
H 4.5612 1.0847 4.6527
H 6.9378 1.4512 5.2294
H 8.0259 0.4066 1.2706
