37
 
C 1.1511 0.3107 -0.1676
O 0.0210 0.3280 -0.1804
Pd 3.2064 0.2744 -0.0746
P 5.5868 0.0607 0.0716
O 6.6097 -1.1686 0.6742
C 6.0462 -2.4140 0.2111
C 6.6933 -3.6452 0.8658
C 4.5003 -2.6107 0.3600
O 6.0046 -0.1861 -1.5762
C 5.5862 0.8893 -2.3973
C 6.1473 0.6456 -3.8106
C 4.0527 0.9394 -2.4688
O 6.2110 1.3887 0.9568
C 5.6781 1.4559 2.2569
C 6.0692 0.2443 3.1154
C 6.2542 2.7041 2.9351
H 6.2972 -2.4689 -0.8603
H 6.4413 -3.7447 1.9473
H 7.7876 -3.6401 0.7228
H 6.3113 -4.5639 0.3606
H 4.1767 -2.6805 1.4207
H 4.2010 -3.5299 -0.1822
H 3.9064 -1.8254 -0.1356
H 5.9984 1.8754 -2.0591
H 5.8168 -0.3514 -4.1720
H 7.2589 0.6695 -3.8105
H 5.8024 1.4217 -4.5330
H 3.6356 -0.0477 -2.7134
H 3.7442 1.7173 -3.1979
H 3.6639 1.3334 -1.5643
H 4.5733 1.5730 2.2092
H 7.1769 0.1160 3.1213
H 5.5795 -0.6782 2.7564
H 5.7014 0.3788 4.1476
H 7.3642 2.6383 3.0080
H 5.8408 2.7864 3.9621
H 5.9907 3.6251 2.3737
