46
 
P 1.0811 0.0290 -0.0508
C 0.2472 -1.2491 -1.1056
C 0.7346 -1.1405 -2.5611
C 0.4183 -2.4925 -3.1529
C 0.8743 -3.4531 -2.0742
C 0.7188 -2.6819 -0.7492
C 0.6261 -0.3153 1.7083
C 1.1308 -1.6148 2.3038
C 0.9339 -1.3692 3.7931
C 1.4398 0.0496 3.9942
C 1.1846 0.7555 2.6608
C 0.5668 1.6543 -0.7503
C 1.1417 2.7909 0.0812
C 0.9488 3.9921 -0.8107
C 1.3430 3.4694 -2.1832
C 1.0388 1.9673 -2.1671
Pd 3.5411 0.0290 -0.0508
C 5.6911 0.0290 -0.0508
O 6.9092 0.0290 -0.0508
H -0.8619 -1.2157 -1.0881
H 1.8414 -0.9976 -2.5934
H 0.2317 -0.3570 -3.1469
H 0.8989 -2.6728 -4.1427
H -0.6826 -2.5645 -3.2622
H 1.9624 -3.6475 -2.2264
H 0.3407 -4.4262 -2.1212
H 1.7378 -2.6710 -0.2932
H 0.0209 -3.1783 -0.0480
H -0.4850 -0.3033 1.8232
H 2.2101 -1.7287 2.0743
H 0.5549 -2.5025 1.9779
H 1.4354 -2.1128 4.4487
H -0.1580 -1.3788 4.0077
H 2.5427 0.0156 4.1364
H 0.9833 0.5487 4.8774
H 2.1708 1.1191 2.2938
H 0.4892 1.6142 2.7738
H -0.5470 1.7535 -0.7301
H 2.2271 2.6169 0.2320
H 0.6371 2.9331 1.0578
H 1.5395 4.8773 -0.4874
H -0.1320 4.2519 -0.8150
H 2.4444 3.5641 -2.2920
H 0.8471 4.0306 -3.0037
H 1.9873 1.4261 -2.3735
H 0.2563 1.7203 -2.9126
