94
 
C 0.9010 -0.6430 -0.0020
N -0.3873 -1.0915 -0.2536
C -1.0317 -2.4328 -0.2113
C -0.5902 -3.3754 0.7951
C 0.6655 -3.1657 1.6432
C 0.6727 -1.9429 2.5911
C 1.0113 -4.3517 2.5436
C -1.3463 -4.5494 1.0383
C -2.5007 -4.8323 0.3784
C -2.9381 -3.9942 -0.6012
C -2.2503 -2.8038 -0.9518
C -2.9389 -2.0378 -2.0935
C -3.1108 -2.9138 -3.3706
C -4.3374 -1.5883 -1.6354
C -1.1253 0.0357 -0.2707
C -0.3387 1.1378 0.0218
N 0.9544 0.7709 0.1849
C 2.0842 1.8023 0.3192
C 2.0756 3.0321 1.1347
C 0.9208 3.6003 1.9556
C 1.2978 3.8361 3.4303
C 0.5103 4.9628 1.3338
C 3.2231 3.8972 1.1545
C 4.3414 3.6852 0.3996
C 4.3382 2.6539 -0.4662
C 3.2483 1.7706 -0.5471
C 3.3836 0.8833 -1.7061
C 4.1114 -0.3088 -1.1773
C 2.0738 0.8262 -2.5122
Pd 2.6584 -1.8814 -0.0135
P 4.6693 -3.2985 -0.0267
N 4.6793 -5.0982 0.3026
C 4.2581 -5.4095 1.6922
C 3.6952 -5.8573 -0.5260
N 5.1684 -3.6832 -1.7965
C 5.8218 -2.5960 -2.5787
C 6.1485 -4.8268 -1.9713
N 5.7396 -2.7492 1.3277
C 7.0053 -3.5006 1.4352
C 6.0435 -1.3153 1.3946
H 1.4596 -3.1323 0.8943
H 0.0102 -2.1234 3.4540
H 0.3457 -0.9660 2.2226
H 1.7244 -1.8025 2.9340
H 0.2174 -4.5439 3.2913
H 1.9257 -4.1354 3.1324
H 1.1334 -5.2479 1.8976
H -1.0973 -5.2884 1.7766
H -3.0639 -5.7218 0.6380
H -3.8611 -4.3032 -1.0706
H -2.3537 -1.1470 -2.3901
H -3.6603 -3.8625 -3.1798
H -2.1333 -3.1772 -3.8217
H -3.7128 -2.3742 -4.1348
H -4.9909 -2.4520 -1.3864
H -4.8547 -1.0205 -2.4355
H -4.2449 -0.9527 -0.7351
H -2.1913 0.0718 -0.4277
H -0.7243 2.1445 0.0603
H 0.0445 2.9354 1.9340
H 2.1903 4.4868 3.5472
H 1.4989 2.8739 3.9367
H 0.4691 4.3630 3.9487
H 1.3249 5.7197 1.3963
H -0.3556 5.4068 1.8636
H 0.2517 4.8373 0.2612
H 3.2764 4.8022 1.7376
H 5.1891 4.3622 0.4208
H 5.2045 2.5612 -1.1182
H 4.0577 1.3248 -2.4844
H 3.9247 -0.4381 -0.1024
H 5.2112 -0.1054 -1.1991
H 3.7594 -1.1734 -1.7347
H 1.3590 0.1155 -2.1362
H 2.2260 0.5254 -3.5617
H 1.5894 1.8363 -2.5018
H 4.8336 -4.9152 2.4934
H 4.2619 -6.5094 1.8914
H 3.2264 -5.1271 1.8269
H 3.8382 -5.8009 -1.6045
H 2.6495 -5.5218 -0.3694
H 3.7653 -6.9484 -0.2925
H 5.2191 -1.7553 -2.8896
H 6.0220 -2.9564 -3.6183
H 6.8024 -2.2907 -2.1481
H 5.6789 -5.7373 -2.3872
H 6.7795 -5.0284 -1.0852
H 6.8757 -4.7079 -2.8129
H 6.8488 -4.5928 1.5040
H 7.5265 -3.2259 2.3832
H 7.6864 -3.2660 0.5923
H 5.1344 -0.7193 1.5785
H 6.6240 -0.9844 0.5088
H 6.6738 -1.1069 2.2929
