74
 
P 0.9260 -0.0673 0.0002
C -0.2793 -0.6124 1.5770
C -0.1982 -2.0751 2.2467
C 1.1095 -2.3338 3.0425
C 1.0814 -1.4822 4.3077
C 0.9345 -0.0079 3.9036
C -0.3044 0.2044 2.9648
C 0.4129 1.7636 -0.3152
C 0.8241 2.6263 0.8625
C 2.3412 2.8288 0.8835
C 2.6820 3.7882 -0.2336
C 2.2805 3.1530 -1.5732
C 0.8157 2.6429 -1.5684
C 0.5876 -1.4265 -1.2690
C 1.2562 -1.3100 -2.6711
C 2.7661 -1.6588 -2.6547
C 3.0317 -3.0383 -2.0202
C 2.4191 -3.0852 -0.6332
C 0.9307 -2.8280 -0.7731
Pd 3.3860 -0.0673 0.0002
P 5.8460 -0.0673 0.0002
N 6.7385 -0.2672 -1.5162
C 8.1779 -0.2225 -1.4077
C 8.5732 -0.0459 0.0473
C 10.0986 -0.0326 0.1274
C 7.9730 1.3417 0.5364
N 6.5009 1.5003 0.3772
N 6.5133 -1.4803 0.7613
C 7.9847 -1.2765 0.8646
H -1.3041 -0.5261 1.1673
H -0.5239 -2.9659 1.7067
H -1.0263 -2.1940 2.9854
H 2.0111 -2.0934 2.4398
H 1.1764 -3.3992 3.3599
H 1.9935 -1.6516 4.9276
H 0.2170 -1.8037 4.9417
H 1.8723 0.3164 3.4116
H 0.8160 0.5737 4.8480
H -0.6393 1.2420 2.9347
H -1.1709 -0.1528 3.5688
H -0.6971 1.6993 -0.3793
H 0.5375 2.1612 1.7496
H 0.2860 3.6054 0.8529
H 2.8994 1.8780 0.7313
H 2.6356 3.2753 1.8537
H 3.7682 4.0161 -0.2162
H 2.1341 4.7434 -0.0481
H 2.9479 2.2959 -1.7734
H 2.4230 3.9286 -2.3634
H 0.5452 2.1956 -2.5456
H 0.1947 3.5756 -1.4997
H -0.5134 -1.3715 -1.4213
H 1.0741 -0.3198 -3.1350
H 0.7681 -2.0667 -3.3339
H 3.3055 -0.8901 -2.0763
H 3.1686 -1.6679 -3.6914
H 4.1205 -3.2389 -1.9459
H 2.5755 -3.8519 -2.6336
H 2.8760 -2.3472 0.0432
H 2.5759 -4.0824 -0.1703
H 0.5326 -2.9593 0.1597
H 0.4521 -3.6006 -1.4118
H 6.3915 0.4522 -2.1940
H 8.5712 0.6070 -2.0400
H 8.5730 -1.1739 -1.8260
H 10.5018 0.8042 -0.4849
H 10.5044 -0.9843 -0.2825
H 10.4274 0.0855 1.1769
H 8.4631 2.1710 -0.0230
H 8.2283 1.4805 1.6064
H 6.2508 2.1661 -0.3893
H 6.2659 -2.3193 0.1883
H 8.4798 -2.2145 0.5250
H 8.2445 -1.1444 1.9345
