78
 
P 1.0753 -0.0325 -0.0572
C 0.4794 -0.8762 -1.6660
C 1.1420 -0.2441 -2.9311
C 2.6806 -0.4338 -2.9708
C 3.0959 -1.9172 -2.8664
C 2.4167 -2.5721 -1.6674
C 0.8847 -2.3874 -1.7792
C 0.2051 -1.0060 1.4860
C 0.4692 -2.5343 1.7204
C 1.9020 -2.8033 2.1976
C 2.1429 -2.1612 3.5668
C 1.7289 -0.6791 3.5614
C 0.3100 -0.4723 2.9924
C 0.6717 1.8662 -0.1419
C 1.2232 2.2802 1.1941
C 2.7614 2.3576 1.0552
C 3.0687 3.7080 0.5201
C 2.4240 3.7983 -0.8902
C 0.9742 3.2048 -0.9750
Pd 3.5353 -0.0325 -0.0572
P 5.9953 -0.0325 -0.0572
C 6.8482 0.6250 -1.5753
C 6.4574 -0.1531 -2.8523
C 6.3720 2.0738 -1.7937
C 6.5153 1.1141 1.2966
C 6.0484 0.6013 2.6684
C 8.0515 1.2368 1.3364
C 6.4673 -1.7847 -0.0075
H -0.6229 -0.7938 -1.7558
H 0.8935 0.8302 -3.0036
H 0.7292 -0.7419 -3.8419
H 3.1184 0.1383 -2.1419
H 3.1008 -0.0124 -3.9088
H 4.1977 -2.0233 -2.7627
H 2.8119 -2.4678 -3.7918
H 2.7933 -2.1046 -0.7422
H 2.7067 -3.6457 -1.6359
H 0.3371 -2.9961 -1.0670
H 0.5721 -2.8228 -2.7613
H -0.8795 -0.9015 1.2636
H 0.2015 -3.1751 0.8904
H -0.2093 -2.9126 2.5321
H 2.6101 -2.3923 1.4577
H 2.0740 -3.8991 2.2994
H 3.2191 -2.2530 3.8349
H 1.5666 -2.7266 4.3386
H 2.4207 -0.1191 2.9112
H 1.8032 -0.2911 4.6050
H -0.0613 0.5463 3.2073
H -0.4172 -1.0149 3.6474
H -0.4394 1.8299 -0.1744
H 0.8958 1.5738 1.8852
H 0.7957 3.2089 1.6194
H 3.1547 1.7693 0.2408
H 3.3036 2.0981 1.9817
H 4.1712 3.8419 0.4501
H 2.6768 4.4216 1.2733
H 3.0384 3.2066 -1.5926
H 2.4626 4.8669 -1.2021
H 0.6005 3.2220 -2.0177
H 0.3487 3.9869 -0.4648
H 7.9477 0.5875 -1.4818
H 5.3626 -0.1557 -2.9986
H 6.8317 -1.1955 -2.8452
H 6.8770 0.3419 -3.7573
H 5.2639 2.1127 -1.9250
H 6.8392 2.5091 -2.7017
H 6.6444 2.7215 -0.9426
H 6.0625 2.1084 1.1218
H 6.5777 -0.3357 2.9557
H 4.9579 0.4087 2.6799
H 6.2803 1.3630 3.4468
H 8.5272 0.2460 1.5178
H 8.3682 1.9278 2.1452
H 8.4540 1.6447 0.3907
H 6.0684 -2.3548 -0.8652
H 6.0895 -2.2181 0.9434
H 7.5775 -1.8460 0.0134
