42
 
P 1.0721 0.0466 -0.0513
C 0.2068 -0.3141 1.5196
C -1.1805 -0.2461 1.7028
C -1.7558 -0.5333 2.9441
C -0.9634 -0.9386 4.0174
C 0.4156 -1.0546 3.8524
C 1.0009 -0.7346 2.6170
C 0.6402 1.7968 -0.2923
C 1.6537 2.7424 -0.4914
C 1.3314 4.0860 -0.7403
C -0.0039 4.4987 -0.7889
C -1.0217 3.5619 -0.6404
C -0.7041 2.2209 -0.4182
C 0.7829 -1.4068 -1.1063
C -0.5132 -1.8282 -1.4888
C -0.6793 -2.9199 -2.3597
C 0.4366 -3.5940 -2.8587
C 1.7213 -3.1828 -2.4870
C 1.8985 -2.0942 -1.6134
Pd 3.5321 0.0466 -0.0513
C 5.6821 0.0466 -0.0513
N 6.4290 -0.8532 -0.7185
C 7.6940 -0.4847 -0.4500
C 7.6663 0.6107 0.3836
O 6.4115 0.9218 0.6019
H -1.8404 0.0197 0.9114
H -2.8260 -0.4496 3.0673
H -1.4228 -1.1729 4.9706
H 1.0242 -1.3935 4.6852
H 2.0771 -0.8382 2.5227
H 2.6908 2.4332 -0.4817
H 2.1161 4.8109 -0.9016
H -0.2531 5.5381 -0.9641
H -2.0598 3.8706 -0.7112
H -1.5310 1.5444 -0.3723
H -1.3996 -1.3179 -1.1373
H -1.6708 -3.2444 -2.6619
H 0.3043 -4.4314 -3.5385
H 2.5774 -3.7092 -2.8887
H 2.9023 -1.7710 -1.3413
H 8.5749 -0.9818 -0.8333
H 8.5181 1.1360 0.7947
