33
 
P 1.1877 0.6981 0.1032
F -0.4789 0.6191 0.0823
F 1.2180 2.0162 1.1405
F 1.2415 1.1022 -1.5340
Pt 3.5274 0.2246 0.2228
P 5.8454 -0.1110 0.0551
O 6.9227 -0.6904 -1.1173
C 6.4356 -1.9805 -1.5213
C 4.9321 -2.1015 -1.9106
O 6.4939 1.4580 0.2714
C 5.9517 2.3843 -0.6253
C 6.5601 3.7555 -0.3045
C 6.3504 -1.2640 1.3550
C 5.4406 -1.8292 2.2553
C 5.9070 -2.6616 3.2847
C 7.2732 -2.9435 3.4052
C 8.1791 -2.4045 2.4931
C 7.7229 -1.5643 1.4798
H 6.6432 -2.7274 -0.7282
H 7.0116 -2.2991 -2.4113
H 4.2162 -1.8824 -1.0663
H 4.7458 -3.1499 -2.2416
H 4.6986 -1.4186 -2.7488
H 4.8473 2.4641 -0.5099
H 6.2416 2.1176 -1.6623
H 6.2869 4.0837 0.7235
H 6.1973 4.5187 -1.0237
H 7.6704 3.7148 -0.3666
H 4.3843 -1.6133 2.1768
H 5.2136 -3.0844 3.9981
H 7.6324 -3.5778 4.2051
H 9.2363 -2.6267 2.5747
H 8.4480 -1.1488 0.7890
