60
 
P 1.0742 -0.0614 0.1760
F -0.1155 -0.8716 1.0182
F 0.6963 1.4489 0.8191
F 0.5704 -0.4960 -1.3664
Pt 3.4347 0.2415 -0.0317
P 5.8135 0.1812 -0.0925
C 6.5011 -1.6288 -0.5802
C 5.7896 -2.3384 0.5494
C 4.3760 -2.6154 -0.0238
C 4.2760 -3.6487 -1.2033
C 5.1174 -3.1557 -2.3524
C 6.4747 -2.7456 -1.7710
C 6.3692 1.1238 -1.6169
C 6.0286 0.4717 -2.9670
C 4.5102 0.4615 -3.2217
C 4.0200 1.9048 -3.3746
C 4.2893 2.5981 -2.0643
C 5.8178 2.5686 -1.6631
C 6.2515 0.6002 1.8802
C 7.5972 0.2316 2.3157
C 8.5444 -0.5348 1.5727
C 8.1691 0.4627 3.5416
C 7.4707 1.0596 4.5074
C 8.1095 1.3222 5.7895
C 6.1628 1.3957 4.3064
C 5.4897 1.1869 3.0727
C 4.0565 1.7045 3.2946
H 7.5904 -1.5934 -0.6729
H 5.7167 -1.7197 1.4781
H 6.2960 -3.2083 0.9881
H 4.0117 -1.7063 -0.5443
H 3.8226 -2.8236 0.8958
H 3.2579 -3.7702 -1.6432
H 4.6226 -4.6712 -0.9382
H 4.6577 -2.2893 -2.8639
H 5.1533 -3.9825 -3.1178
H 7.1603 -2.5723 -2.6220
H 6.8629 -3.6993 -1.3020
H 7.4850 1.1482 -1.5200
H 6.4309 -0.5423 -3.0117
H 6.5393 1.0521 -3.7771
H 3.9664 -0.0435 -2.3449
H 4.3017 -0.0598 -4.1781
H 2.9197 1.9223 -3.5755
H 4.5229 2.4668 -4.1974
H 3.6358 2.0229 -1.3756
H 3.9019 3.6302 -2.1764
H 6.0383 3.0442 -0.6888
H 6.4137 3.1661 -2.4026
H 8.0825 -0.5322 0.7238
H 8.6059 -1.5437 2.0558
H 9.5013 -0.0305 1.3871
H 9.2008 0.1485 3.7495
H 9.1720 0.9892 5.7869
H 7.5149 0.7509 6.5270
H 8.0461 2.4217 5.9024
H 5.6881 1.8436 5.1759
H 3.6886 2.0534 4.3186
H 3.2955 0.9053 3.2871
H 4.0506 2.6781 2.7822
