48
 
P 1.2548 0.2330 0.0420
F -0.1647 0.4635 -0.8083
F 0.8512 -1.3272 0.5349
F 0.9470 1.4764 1.1270
Pt 3.6520 0.1837 0.2985
P 6.0148 0.0118 0.0465
C 6.7143 -0.5278 -1.5361
C 6.4233 0.2179 -2.7002
C 6.6445 -0.3375 -3.9687
C 7.1796 -1.6274 -4.0884
C 7.2967 -2.2930 -5.4291
C 7.5505 -2.3274 -2.9334
C 7.3039 -1.7891 -1.6691
C 6.5434 1.7226 0.2863
C 5.6033 2.7563 0.3919
C 6.0466 4.0865 0.5167
C 7.4206 4.3832 0.5804
C 7.9022 5.8058 0.5953
C 8.3494 3.3362 0.5840
C 7.9131 2.0192 0.4177
C 6.4953 -1.1619 1.3201
C 5.5473 -1.7800 2.1431
C 5.9789 -2.5655 3.2260
C 7.3510 -2.7577 3.4698
C 7.8242 -3.5446 4.6560
C 8.2896 -2.1810 2.6081
C 7.8640 -1.3744 1.5561
H 5.9521 1.1934 -2.6425
H 6.3484 0.2110 -4.8568
H 6.8864 -1.6544 -6.2404
H 6.6969 -3.2322 -5.4169
H 8.3523 -2.5408 -5.6509
H 7.9645 -3.3239 -3.0069
H 7.4963 -2.4081 -0.8115
H 4.5354 2.5212 0.3449
H 5.3247 4.8916 0.5446
H 7.0550 6.5166 0.4941
H 8.5640 5.9585 -0.2875
H 8.4705 6.0372 1.5182
H 9.4121 3.5411 0.6779
H 8.6549 1.2374 0.3825
H 4.4853 -1.6219 1.9690
H 5.2494 -3.0106 3.8890
H 6.9727 -3.8889 5.2796
H 8.4667 -2.8940 5.2898
H 8.4123 -4.4250 4.3254
H 9.3521 -2.3277 2.7673
H 8.6126 -0.9023 0.9368
