78
 
P 0.9985 -0.0432 0.0902
C 0.2940 1.4811 -0.6149
C -1.0568 1.7012 -0.9257
C -1.4180 2.8013 -1.7280
C -0.4477 3.7024 -2.2021
C -0.8094 4.7965 -3.1721
C 0.8831 3.5390 -1.8076
C 1.2485 2.4335 -1.0336
C 0.6515 -1.3832 -1.0777
C 1.7371 -2.0591 -1.6297
C 1.5215 -3.0821 -2.5802
C 0.2131 -3.4393 -2.9676
C -0.0344 -4.4597 -4.0506
C -0.8765 -2.8016 -2.3603
C -0.6622 -1.7750 -1.4267
C 0.4672 0.0101 1.8258
C -0.9070 -0.0617 2.1239
C -1.3589 -0.0119 3.4447
C -0.4450 0.0760 4.5002
C -0.9328 0.2529 5.9108
C 0.9307 0.0298 4.2207
C 1.3865 -0.0007 2.8900
Pt 3.4585 -0.0432 0.0902
P 5.9185 -0.0432 0.0902
O 7.0922 0.2341 1.3049
C 6.5044 -0.2568 2.5322
C 6.6873 -1.7763 2.6438
C 7.1268 0.3936 3.7792
O 6.3652 -1.6496 -0.2789
C 5.8379 -2.0781 -1.5053
C 6.3862 -1.2549 -2.6721
C 6.2392 -3.5454 -1.6857
O 6.4635 1.3059 -0.8136
C 5.8945 2.5333 -0.4600
C 6.3439 2.9947 0.9288
C 6.4054 3.5545 -1.4861
H -1.8242 1.0071 -0.6299
H -2.4511 2.9287 -2.0217
H -1.8702 4.7182 -3.4927
H -0.1872 4.6887 -4.0910
H -0.6302 5.7994 -2.7368
H 1.6474 4.2296 -2.1533
H 2.3007 2.2929 -0.8127
H 2.7326 -1.7429 -1.2972
H 2.3646 -3.5906 -3.0296
H 0.9159 -4.8086 -4.5074
H -0.6293 -3.9756 -4.8571
H -0.5999 -5.3405 -3.6772
H -1.8904 -3.0849 -2.6348
H -1.5295 -1.2914 -0.9994
H -1.6434 -0.1525 1.3391
H -2.4247 -0.0296 3.6430
H -2.0378 0.3784 5.9456
H -0.4886 1.1894 6.3150
H -0.6431 -0.5988 6.5570
H 1.6460 0.0456 5.0350
H 2.4512 -0.0310 2.6982
H 5.4104 -0.0185 2.6274
H 7.7556 -2.0234 2.4763
H 6.0546 -2.3037 1.9089
H 6.3592 -2.1626 3.6306
H 8.2198 0.2214 3.8125
H 6.6814 -0.0567 4.7014
H 6.9118 1.4810 3.8282
H 4.7399 -2.0457 -1.4857
H 7.4943 -1.2258 -2.6071
H 5.9859 -0.2243 -2.6381
H 6.0614 -1.6812 -3.6401
H 7.3457 -3.6463 -1.6562
H 5.8678 -3.9333 -2.6580
H 5.8082 -4.1736 -0.8754
H 4.7889 2.4864 -0.5428
H 7.4557 2.9729 1.0002
H 5.9066 2.3512 1.7127
H 5.9848 4.0241 1.1195
H 7.5181 3.6231 -1.4558
H 5.9843 4.5561 -1.2657
H 6.1111 3.2651 -2.5180
