78
 
P 0.9799 0.0271 -0.0941
C 0.2085 -0.8459 1.2735
C -1.1574 -0.8794 1.5698
C -1.6059 -1.6269 2.6725
C -0.6980 -2.3422 3.4685
Cl -1.2568 -3.2637 4.8531
C 0.6615 -2.3216 3.1608
C 1.1090 -1.5770 2.0727
C 0.5635 1.7062 0.4013
C 0.9633 2.2749 1.6094
C 0.5681 3.5837 1.9260
C -0.2168 4.3292 1.0346
Cl -0.7338 5.9532 1.4547
C -0.5935 3.7754 -0.1896
C -0.2047 2.4712 -0.5053
C 0.5026 -0.8032 -1.6013
C -0.8583 -0.8794 -1.9346
C -1.2664 -1.5147 -3.1048
C -0.3146 -2.0765 -3.9576
Cl -0.8490 -2.9034 -5.4119
C 1.0537 -1.9743 -3.6471
C 1.4707 -1.3277 -2.4647
Pt 3.4399 0.0271 -0.0941
P 5.8999 0.0271 -0.0941
C 6.4701 1.3829 -1.1820
C 6.0845 2.6906 -0.8150
C 6.2739 3.7819 -1.6832
C 5.7681 5.1554 -1.3293
C 6.8844 3.5724 -2.9235
C 7.2838 2.2877 -3.2989
C 7.0705 1.1943 -2.4438
C 6.3823 0.4627 1.5863
C 5.4098 0.6346 2.5817
C 5.8054 0.9353 3.9054
C 4.7908 1.1979 4.9774
C 7.1718 1.0189 4.2254
C 8.1368 0.8056 3.2407
C 7.7456 0.5331 1.9258
C 6.3562 -1.4867 -0.9746
C 7.7133 -1.7838 -1.2197
C 8.0823 -2.9775 -1.8664
C 9.5160 -3.2499 -2.2326
C 7.0915 -3.9106 -2.1998
C 5.7497 -3.6470 -1.9043
C 5.3800 -2.4337 -1.3062
H -1.8668 -0.3358 0.9671
H -2.6592 -1.6524 2.9119
H 1.3736 -2.8793 3.7603
H 2.1715 -1.5802 1.8473
H 1.5665 1.7053 2.2998
H 0.8660 4.0181 2.8684
H -1.1918 4.3501 -0.8909
H -0.5127 2.0622 -1.4625
H -1.6091 -0.4396 -1.2942
H -2.3231 -1.5695 -3.3427
H 1.7820 -2.3986 -4.3253
H 2.5326 -1.2201 -2.1989
H 5.5787 2.8542 0.1283
H 5.3036 5.1764 -0.3208
H 4.9871 5.4494 -2.0650
H 6.5845 5.9070 -1.3631
H 7.0236 4.4013 -3.6104
H 7.7214 2.1385 -4.2783
H 7.3276 0.2157 -2.8123
H 4.3555 0.5383 2.3095
H 3.7578 1.0666 4.5955
H 4.9106 2.2511 5.3086
H 4.9389 0.5299 5.8542
H 7.4910 1.2459 5.2383
H 9.1892 0.8562 3.4988
H 8.5104 0.3626 1.1790
H 8.4812 -1.0791 -0.9241
H 10.1907 -2.4382 -1.8866
H 9.5820 -3.2943 -3.3409
H 9.8768 -4.2152 -1.8172
H 7.3606 -4.8437 -2.6835
H 4.9964 -4.3860 -2.1452
H 4.3400 -2.2432 -1.0747
