49
 
P 0.9896 -0.0881 -0.0462
C 0.2193 0.5086 -1.5742
C -1.1573 0.6234 -1.8016
C -1.6309 1.0196 -3.0588
C -0.7386 1.3334 -4.0897
Cl -1.3424 1.7699 -5.6784
C 0.6354 1.2926 -3.8528
C 1.1108 0.8852 -2.6032
C 0.4945 -1.8140 -0.2348
C 1.4327 -2.8483 -0.3008
C 0.9983 -4.1850 -0.3109
C -0.3694 -4.4900 -0.2543
Cl -0.9175 -6.1561 -0.2582
C -1.3049 -3.4623 -0.1683
C -0.8752 -2.1403 -0.1486
C 0.4776 0.8889 1.3809
C -0.3124 0.2343 2.3472
C -0.7761 0.9105 3.4747
C -0.4483 2.2527 3.6599
Cl -1.0526 3.1053 5.0704
C 0.3570 2.9098 2.7183
C 0.8221 2.2310 1.5772
Pt 3.4496 -0.0881 -0.0462
N 5.5496 -0.0881 -0.0462
C 6.1967 -0.9690 -0.8557
C 7.5905 -1.1140 -0.7673
C 8.3175 -2.1628 -1.5562
C 8.2982 -0.2958 0.1220
C 7.6140 0.6225 0.9203
C 6.2219 0.7006 0.8332
H -1.8717 0.4071 -1.0316
H -2.6959 1.0712 -3.2339
H 1.3335 1.5577 -4.6402
H 2.1850 0.8483 -2.4495
H 2.4909 -2.6218 -0.3094
H 1.7220 -4.9865 -0.3441
H -2.3648 -3.6808 -0.0924
H -1.6293 -1.3863 -0.0188
H -0.5834 -0.8072 2.2330
H -1.3933 0.3892 4.1989
H 0.6154 3.9483 2.8729
H 1.4414 2.7482 0.8590
H 5.6153 -1.5987 -1.5173
H 7.6246 -2.7475 -2.1977
H 8.7951 -2.8699 -0.8424
H 9.1049 -1.7062 -2.1895
H 9.3739 -0.3866 0.2120
H 8.1556 1.2427 1.6226
H 5.6732 1.3713 1.4807
