84
 
P 1.0485 0.0404 -0.0776
C 0.2319 -1.4163 -1.1408
C -1.3012 -1.4906 -1.1509
C 0.5252 -1.4395 -2.6829
C 0.7949 -2.7712 -0.6276
C 0.5783 -0.3426 1.8465
C 1.2329 -1.6357 2.3750
C 0.9836 0.6865 2.9670
C -0.9553 -0.4180 2.0862
C 0.5829 1.6570 -0.9129
C 1.0989 3.0306 -0.2900
C 2.6349 3.0072 -0.2537
C 0.6234 4.2222 -1.1495
C 0.5918 3.3653 1.1180
Pt 3.5085 0.0404 -0.0776
P 5.9685 0.0404 -0.0776
C 6.7335 1.6625 -0.3376
C 7.9553 2.1072 0.1863
C 8.3599 3.4400 -0.0223
C 7.5536 4.3276 -0.7469
C 6.3426 3.8884 -1.2732
C 5.9424 2.5683 -1.0662
C 6.1629 -0.4545 1.6617
C 5.0255 -0.6962 2.4423
C 5.1352 -1.2474 3.7274
C 6.3933 -1.5458 4.2530
C 7.5392 -1.2763 3.5008
C 7.4272 -0.7380 2.2090
C 6.6024 -0.9950 -1.4563
C 6.1980 -2.4657 -1.2133
C 4.6829 -2.6219 -1.3088
C 4.2886 -2.2276 -2.7241
C 4.6231 -0.7543 -3.0112
C 6.1315 -0.5317 -2.8480
H -1.7313 -0.6427 -1.7138
H -1.7819 -1.5644 -0.2013
H -1.6191 -2.4471 -1.6347
H 0.2859 -0.5059 -3.2138
H -0.0679 -2.2577 -3.1722
H 1.4848 -1.7587 -3.0112
H 0.2550 -3.1024 0.2556
H 1.8968 -2.7235 -0.4578
H 0.6108 -3.6283 -1.3092
H 2.3079 -1.6344 2.1623
H 0.7967 -2.5599 2.0381
H 1.0920 -1.7561 3.4722
H 2.0693 0.8875 3.0545
H 0.6948 0.2997 3.9772
H 0.3243 1.5708 3.0466
H -1.4244 -1.3013 1.6781
H -1.4625 0.5232 1.7661
H -1.2030 -0.5682 3.1610
H -0.5269 1.6985 -0.9602
H 0.9662 1.6039 -1.9515
H 2.9955 2.9064 -1.2870
H 3.0198 2.1689 0.3593
H 3.0286 3.9512 0.1869
H 0.9689 4.1212 -2.1938
H 1.0313 5.1810 -0.7451
H -0.4861 4.3139 -1.1316
H 1.1742 2.7681 1.7853
H -0.5156 3.2836 1.2271
H 0.8795 4.3890 1.4520
H 8.5841 1.4567 0.7664
H 9.2939 3.7966 0.3884
H 7.8612 5.3560 -0.8982
H 5.7094 4.5702 -1.8321
H 5.0014 2.2416 -1.4752
H 4.0566 -0.4864 2.0381
H 4.2471 -1.4649 4.3099
H 6.4801 -1.9933 5.2375
H 8.5128 -1.5131 3.9114
H 8.3264 -0.5872 1.6331
H 7.7115 -0.9447 -1.4153
H 6.5515 -2.8214 -0.2241
H 6.6708 -3.1164 -1.9873
H 4.1339 -1.9992 -0.5476
H 4.3964 -3.6817 -1.1403
H 3.2500 -2.4274 -2.7881
H 4.7573 -2.8920 -3.4810
H 4.0735 -0.1024 -2.3035
H 4.3060 -0.4799 -4.0406
H 6.3970 0.5314 -3.0210
H 6.6601 -1.1364 -3.6205
