93
 
P 0.9407 -0.0439 -0.0674
C 0.1970 -1.6705 -0.4951
C 1.0510 -2.7938 -0.7881
C 2.5462 -2.8037 -0.7584
C 0.5085 -4.0279 -1.1411
C -0.8591 -4.2037 -1.1929
C -1.7090 -3.1413 -0.8823
C -1.1913 -1.8822 -0.5311
C 0.3920 0.2815 1.6478
C 1.1324 0.0661 2.8525
C 2.5444 -0.4408 2.9243
C 0.5119 0.3267 4.0951
C -0.7889 0.8218 4.1629
C -1.4905 1.0808 2.9929
C -0.9075 0.8130 1.7544
C 0.4890 1.0026 -1.5136
C 0.8008 2.4065 -1.5399
C 1.4992 3.1560 -0.4489
C 0.3966 3.2051 -2.6199
C -0.3642 2.6686 -3.6448
C -0.7082 1.3217 -3.6175
C -0.2750 0.4949 -2.5786
Pt 3.4007 -0.0439 -0.0674
P 5.8607 -0.0439 -0.0674
C 6.9058 1.5279 0.2705
C 6.3634 2.5407 -0.7399
C 4.8534 2.7399 -0.4890
C 4.5901 3.2662 0.9458
C 5.3740 2.5408 2.0643
C 6.8190 2.2983 1.6508
C 6.5301 -1.1246 1.3645
C 6.0845 -2.6246 1.2298
C 6.6787 -3.3187 -0.0225
C 8.2189 -3.2507 -0.0421
C 8.7262 -1.8360 0.2261
C 8.0948 -1.2053 1.4677
C 5.9539 -0.6586 -1.9819
C 7.0934 -0.8908 -2.9029
C 8.4871 -0.3703 -2.7806
C 6.9616 -1.6640 -4.1043
C 5.7532 -2.1734 -4.5186
C 4.6327 -1.8605 -3.7795
C 4.7299 -1.1263 -2.5639
H 2.9540 -1.9035 -0.3649
H 2.9216 -2.9890 -1.7850
H 2.9441 -3.5915 -0.0891
H 1.1652 -4.8640 -1.3708
H -1.2464 -5.1749 -1.4698
H -2.7747 -3.3030 -0.9211
H -1.8730 -1.0787 -0.2999
H 3.0360 -0.5289 1.9540
H 2.5342 -1.4333 3.4238
H 3.1531 0.2443 3.5567
H 1.0399 0.1511 5.0264
H -1.2510 1.0134 5.1246
H -2.4944 1.4831 3.0447
H -1.4826 1.0297 0.8638
H 1.6753 2.5313 0.4396
H 0.9018 4.0361 -0.1263
H 2.4256 3.5829 -0.8544
H 0.6406 4.2642 -2.6462
H -0.7036 3.3075 -4.4490
H -1.3258 0.9142 -4.4030
H -0.5813 -0.5316 -2.6157
H 7.9838 1.3583 0.0824
H 6.5660 2.1613 -1.7597
H 6.8703 3.5294 -0.6520
H 4.2752 1.8175 -0.6385
H 4.4700 3.4042 -1.2801
H 3.5251 3.2110 1.2227
H 4.8715 4.3336 0.9315
H 4.9671 1.5436 2.3169
H 5.3157 3.1642 2.9922
H 7.3737 1.8141 2.4803
H 7.3022 3.3090 1.5489
H 6.1502 -0.7198 2.3227
H 4.9818 -2.7166 1.2208
H 6.4547 -3.2004 2.1118
H 6.2554 -2.8453 -0.9154
H 6.3769 -4.3874 -0.0795
H 8.6077 -3.6067 -1.0275
H 8.6333 -3.9104 0.7449
H 8.4283 -1.2175 -0.5811
H 9.8388 -1.8309 0.2739
H 8.5454 -0.2107 1.6414
H 8.3934 -1.8404 2.3331
H 8.5618 0.3047 -1.9254
H 8.7339 0.2585 -3.6665
H 9.2178 -1.2175 -2.7818
H 7.8141 -1.8923 -4.7501
H 5.6885 -2.7800 -5.4295
H 3.6823 -2.2323 -4.1540
H 3.8105 -0.9861 -2.0813
