103
 
P 1.0369 0.0723 0.0584
C 0.1096 0.0329 1.7775
C -1.3208 0.1035 1.9595
C -2.3106 0.5217 0.9955
C -1.9636 -0.1771 3.1536
C -1.2847 -0.4785 4.2851
C -2.0853 -0.7672 5.5164
C 0.1005 -0.4557 4.2515
C 0.8182 -0.1950 3.0450
C 2.3142 -0.1549 3.2471
C 0.4234 1.7414 -0.6577
C 1.0128 3.0772 -0.5360
C 2.2856 3.5079 0.1264
C 0.3960 4.1943 -1.1268
C -0.7544 4.1026 -1.8701
C -1.3565 5.3591 -2.4490
C -1.3090 2.8501 -2.0879
C -0.7443 1.6741 -1.5441
C -1.4968 0.3847 -1.9429
C 0.8219 -1.5361 -0.9545
C 0.1982 -2.7782 -0.5818
C -0.2891 -3.0968 0.7823
C 0.0226 -3.8294 -1.5318
C 0.4642 -3.7053 -2.8510
C 0.2855 -4.7718 -3.9025
C 1.1076 -2.5471 -3.2181
C 1.2944 -1.4925 -2.3066
C 2.0226 -0.3141 -2.8226
Pt 3.4969 0.0723 0.0584
C 5.6469 0.0723 0.0584
N 6.4833 -0.9923 -0.1424
C 5.8708 -2.3050 -0.2469
C 6.4045 -3.7771 -0.1093
C 5.1036 -4.6188 0.1805
C 4.0648 -4.4345 -0.9378
C 3.7850 -2.9580 -1.2158
C 5.0414 -2.2475 -1.5168
C 7.7514 -0.5190 -0.1064
C 7.6928 0.8563 0.1727
N 6.3881 1.1956 0.3056
C 5.5982 2.3602 0.6865
C 4.9389 1.8250 1.9850
C 5.7309 2.2546 3.2261
C 5.5123 3.7314 3.4025
C 6.2068 4.4649 2.2507
C 5.7711 3.9224 0.8796
H -1.8146 1.2592 0.4188
H -3.0383 1.2433 1.4226
H -2.8841 -0.3689 0.6636
H -3.0500 -0.1471 3.2013
H -3.1819 -0.7174 5.3100
H -1.8569 -0.0011 6.2793
H -1.8681 -1.7914 5.8763
H 0.6131 -0.6527 5.1874
H 2.5981 -0.2822 4.3230
H 2.6325 0.8680 3.0279
H 2.8848 -0.9105 2.6777
H 3.1205 2.8919 -0.1865
H 2.1156 4.2633 0.9378
H 2.8006 4.2472 -0.5244
H 0.8332 5.1846 -1.0143
H -0.7711 6.2643 -2.1679
H -2.3864 5.5082 -2.0642
H -1.3657 5.3059 -3.5566
H -2.2083 2.7922 -2.6898
H -2.3315 0.5748 -2.6438
H -1.9869 -0.1987 -1.1798
H -0.8676 -0.3651 -2.4009
H -0.1398 -2.2893 1.4797
H 0.3071 -3.9504 1.1690
H -1.3647 -3.3624 0.7415
H -0.4677 -4.7549 -1.2429
H -0.2876 -5.6464 -3.5350
H 1.2805 -5.1148 -4.2640
H -0.2566 -4.3380 -4.7741
H 1.4788 -2.4737 -4.2362
H 2.3779 -0.4589 -3.8631
H 2.8948 -0.1583 -2.1676
H 1.3335 0.5373 -2.8007
H 5.3244 -2.2496 0.7192
H 7.0967 -3.9443 0.7438
H 6.8947 -4.1746 -1.0329
H 4.6325 -4.2573 1.1254
H 5.2996 -5.7014 0.3181
H 3.1037 -4.9398 -0.7029
H 4.4757 -4.8854 -1.8681
H 3.3101 -2.3293 -0.3903
H 3.2211 -2.9309 -2.1316
H 4.7524 -1.2224 -1.8009
H 5.5977 -2.6607 -2.3890
H 8.6460 -1.1188 -0.2345
H 8.5356 1.5232 0.3094
H 5.0508 2.4200 -0.2692
H 4.9628 0.7236 2.1364
H 3.8738 2.0572 1.8970
H 6.8241 2.0290 3.1198
H 5.3671 1.7082 4.1200
H 5.9274 4.0718 4.3721
H 4.4082 3.8980 3.4175
H 7.3023 4.3713 2.3427
H 5.9270 5.5445 2.3301
H 6.2581 4.4708 0.0477
H 4.7163 4.2794 0.8612
