64
 
P 0.9810 0.0866 -0.0462
C 0.2141 -1.6860 0.2917
C -1.3245 -1.7883 0.2726
C 0.6822 -2.7901 -0.7080
C 0.7280 -2.2188 1.6531
C 0.5089 1.2154 1.5527
C 1.2129 0.7393 2.8410
C 0.8767 2.7435 1.5603
C -1.0260 1.3023 1.7849
C 0.5102 0.6082 -1.7823
C 1.0450 2.0019 -2.3408
C 2.5774 1.9751 -2.3274
C 0.5460 2.2166 -3.7885
C 0.5878 3.2613 -1.5983
Pt 3.4410 0.0866 -0.0462
P 5.9010 0.0866 -0.0462
C 6.8682 1.4329 0.6938
C 6.3652 -1.3050 1.0200
C 6.4189 0.0497 -1.7616
C 5.4616 0.0145 -2.7628
C 5.8334 -0.0938 -4.1069
C 7.1860 -0.1941 -4.4467
C 8.1592 -0.1744 -3.4423
C 7.7780 -0.0484 -2.1007
H -1.7282 -1.5957 -0.7368
H -1.8446 -1.1575 0.9756
H -1.6358 -2.8095 0.5982
H 0.3951 -2.5819 -1.7543
H 0.1723 -3.7586 -0.4491
H 1.7638 -3.0338 -0.6366
H 0.1516 -1.7999 2.4774
H 1.8309 -2.0644 1.7535
H 0.5414 -3.3047 1.8023
H 2.3037 0.6593 2.6630
H 0.8274 -0.1630 3.2869
H 1.0441 1.4431 3.6875
H 1.9567 2.9628 1.4415
H 0.6041 3.2136 2.5397
H 0.1939 3.3790 0.9632
H -1.4756 0.3786 2.1263
H -1.5433 1.7138 0.8841
H -1.2837 1.9771 2.6331
H -0.5995 0.6171 -1.8372
H 0.8786 -0.1834 -2.4653
H 2.8656 1.1600 -2.9878
H 2.9984 1.8035 -1.3110
H 2.9951 2.9246 -2.7311
H 0.7958 1.3542 -4.4333
H 1.0192 3.1260 -4.2319
H -0.5543 2.3854 -3.8138
H 1.1990 3.3335 -0.7191
H -0.5154 3.2962 -1.4349
H 0.8751 4.2009 -2.1232
H 6.5383 1.5215 1.7557
H 6.5534 2.3801 0.2002
H 7.9597 1.3029 0.6440
H 5.9921 -1.1815 2.0524
H 7.4758 -1.3815 1.0225
H 5.9683 -2.2401 0.5707
H 4.4382 0.0331 -2.4672
H 5.0763 -0.1242 -4.8798
H 7.4784 -0.3039 -5.4835
H 9.2055 -0.2718 -3.7025
H 8.5389 -0.0555 -1.3311
