73
 
P 1.0247 -0.0943 0.0223
C 0.2184 -1.5894 0.6824
C -1.1428 -1.5667 1.0609
C -1.9864 -0.3195 1.0666
C -1.7487 -2.7246 1.5504
C -1.0542 -3.9256 1.6643
C -1.7589 -5.1544 2.1590
C 0.3017 -3.9688 1.3489
C 0.9795 -2.8200 0.8901
C 2.5023 -2.9886 0.7308
C 0.9044 1.0858 1.5114
C 0.3151 0.8586 2.8124
C 0.1743 -0.4615 3.5206
C -0.1551 1.9550 3.5679
C 0.0056 3.2677 3.1371
C -0.5600 4.4197 3.9283
C 0.7574 3.5046 1.9930
C 1.2600 2.4439 1.2131
C 2.1045 2.8180 0.0120
C 0.3089 0.2167 -1.7544
C -0.4971 1.4018 -2.0602
C -0.8699 2.5424 -1.1662
C -1.0552 1.6226 -3.3291
C -0.8689 0.7507 -4.3671
C -1.5216 0.9937 -5.6961
C -0.0733 -0.3548 -4.1680
C 0.5226 -0.6501 -2.9137
C 1.3449 -1.9106 -2.9584
Pt 3.4847 -0.0943 0.0223
N 5.5847 -0.0943 0.0223
C 6.2229 0.1277 -1.1574
C 7.6141 0.0349 -1.2328
C 8.3381 -0.2943 -0.0844
Cl 10.0821 -0.4666 -0.1665
C 7.6644 -0.5031 1.1235
C 6.2699 -0.3915 1.1583
H -1.4644 0.5885 0.7456
H -2.3072 -0.1302 2.1140
H -2.8762 -0.4347 0.4315
H -2.7845 -2.6815 1.8522
H -2.7948 -4.9170 2.4830
H -1.2154 -5.5878 3.0237
H -1.8154 -5.9051 1.3426
H 0.8309 -4.9107 1.4857
H 2.8497 -3.9221 1.2500
H 3.0524 -2.1741 1.2522
H 2.8799 -3.0926 -0.3071
H 0.7177 -1.2732 3.0286
H -0.8758 -0.7275 3.7539
H 0.6984 -0.3652 4.4976
H -0.6704 1.7821 4.5078
H -1.1074 4.0705 4.8306
H -1.2727 5.0187 3.3156
H 0.2709 5.0755 4.2535
H 0.9338 4.5327 1.6932
H 1.9807 3.8818 -0.2803
H 1.9476 2.2017 -0.8875
H 3.1607 2.6645 0.3144
H -0.5570 2.4234 -0.1667
H -1.9695 2.6527 -1.0979
H -0.4436 3.4881 -1.5871
H -1.6674 2.5031 -3.5143
H -2.1345 1.9220 -5.6935
H -2.1941 0.1403 -5.9288
H -0.7438 1.0826 -6.4803
H 0.0589 -1.0040 -5.0280
H 1.4855 -2.2703 -4.0121
H 0.7957 -2.7305 -2.4622
H 2.3729 -1.7358 -2.5924
H 5.6440 0.3524 -2.0436
H 8.1193 0.1967 -2.1767
H 8.2127 -0.7676 2.0184
H 5.7313 -0.5763 2.0780
