38
 
P 1.0523 0.0677 0.0518
C 0.1372 -1.0519 -1.0482
C 0.6012 -0.8276 1.5658
C 0.5287 1.7373 -0.3517
C -0.1866 2.4707 0.6130
C -0.6369 3.7633 0.3289
C -0.3774 4.3302 -0.9201
C 0.3412 3.6078 -1.8800
C 0.7977 2.3133 -1.5967
Pt 3.5123 0.0677 0.0518
N 5.6123 0.0677 0.0518
C 6.2461 1.2404 -0.1354
C 5.3983 2.4245 -0.4575
C 7.6425 1.2983 -0.0006
C 8.3406 0.1309 0.3419
C 7.6523 -1.0768 0.4934
C 6.2632 -1.0919 0.3201
C 5.4678 -2.3574 0.4029
H -0.9585 -0.9975 -0.9528
H 0.5156 -2.0885 -0.9007
H 0.4364 -0.7731 -2.0864
H -0.5118 -0.8341 1.6371
H 0.9583 -0.2178 2.4252
H 1.0029 -1.8521 1.6245
H -0.4016 2.0447 1.5862
H -1.1908 4.3232 1.0740
H -0.7340 5.3282 -1.1427
H 0.5395 4.0511 -2.8459
H 1.3470 1.7599 -2.3454
H 4.3097 2.1130 -0.4632
H 5.6862 2.8142 -1.4580
H 5.5607 3.2145 0.3035
H 8.1793 2.2285 -0.1320
H 9.4141 0.1551 0.4812
H 8.1918 -1.9834 0.7408
H 6.1177 -3.2305 0.6318
H 5.0038 -2.5365 -0.5913
H 4.6527 -2.2675 1.1500
