67
 
P 0.9526 -0.0662 -0.0580
C 0.2330 1.4557 -0.7040
C -1.1228 1.7154 -0.9231
C -1.5076 2.9287 -1.5091
C -0.5510 3.9081 -1.8575
O -0.8899 5.0562 -2.5010
C -2.1506 5.3272 -2.9954
C 0.7923 3.6791 -1.5502
C 1.1766 2.4646 -0.9829
C 0.6058 -1.1865 -1.4382
C 1.6749 -1.8040 -2.0813
C 1.4584 -2.7381 -3.0891
C 0.1545 -3.0955 -3.4787
O -0.0672 -3.9828 -4.4867
C 0.9317 -4.4815 -5.3054
C -0.9323 -2.5160 -2.8050
C -0.7100 -1.5677 -1.7892
C 0.4674 -0.2986 1.6524
C -0.8935 -0.4149 1.9605
C -1.3142 -0.5299 3.2788
C -0.3807 -0.5473 4.3289
O -0.7842 -0.5895 5.6300
C -2.1071 -0.5152 6.0408
C 0.9958 -0.5035 4.0147
C 1.4243 -0.3804 2.6730
Pt 3.4126 -0.0662 -0.0580
P 5.8726 -0.0662 -0.0580
N 6.7336 1.4662 0.2079
C 6.3774 2.1159 1.4891
C 8.1659 1.4053 -0.0147
O 6.4346 -0.7918 1.3792
C 6.1332 -2.1679 1.3141
O 6.1914 -0.0510 -1.7346
C 5.8382 -1.3058 -2.2711
H -1.8844 0.9967 -0.6752
H -2.5554 3.0913 -1.7074
H -2.1521 6.3023 -3.5222
H -2.8788 5.3687 -2.1602
H -2.4537 4.5375 -3.7202
H 1.5492 4.4248 -1.7757
H 2.2298 2.3051 -0.7717
H 2.6854 -1.5795 -1.7904
H 2.3232 -3.1844 -3.5546
H 0.5091 -5.1746 -6.0589
H 1.6815 -5.0371 -4.7029
H 1.4331 -3.6409 -5.8367
H -1.9483 -2.8005 -3.0651
H -1.5679 -1.1606 -1.2727
H -1.6462 -0.4046 1.1858
H -2.3775 -0.5878 3.4693
H -2.1715 -0.5293 7.1474
H -2.6799 -1.3800 5.6435
H -2.5720 0.4309 5.6788
H 1.7292 -0.5426 4.8115
H 2.4888 -0.3330 2.4067
H 5.2792 2.0900 1.6776
H 6.6572 3.1932 1.4563
H 6.9044 1.6555 2.3526
H 8.3543 1.0739 -1.0542
H 8.6416 0.7218 0.7140
H 8.5881 2.4301 0.0833
H 6.7944 -2.7135 2.0207
H 6.3319 -2.6349 0.3198
H 5.0832 -2.3362 1.6302
H 5.6317 -1.1718 -3.3531
H 4.9049 -1.7215 -1.8380
H 6.6682 -2.0399 -2.1760
