50
 
P 0.9707 -0.0794 0.0532
C 0.1341 -0.1682 -1.5427
C -1.2502 -0.2232 -1.7315
C -1.7733 -0.3162 -3.0288
C -0.9214 -0.3619 -4.1390
F -1.4337 -0.4842 -5.3885
C 0.4590 -0.2863 -3.9596
C 0.9827 -0.1827 -2.6700
C 0.5396 -1.7677 0.5315
C 0.8601 -2.9071 -0.2159
C 0.4862 -4.1775 0.2544
C -0.1955 -4.3149 1.4709
F -0.5393 -5.5447 1.9294
C -0.5210 -3.1830 2.2162
C -0.1616 -1.9181 1.7467
C 0.4844 1.4108 0.9459
C -0.8789 1.6807 1.1880
C -1.2691 2.8078 1.9127
C -0.3021 3.6711 2.4236
F -0.6883 4.7660 3.1280
C 1.0599 3.3964 2.2179
C 1.4603 2.2637 1.4759
Pt 3.4307 -0.0794 0.0532
N 5.5307 -0.0794 0.0532
C 6.1686 1.0119 0.5412
C 7.5528 1.1087 0.4499
C 8.2865 0.0627 -0.1423
O 9.6350 0.1243 -0.2913
C 10.4078 1.2263 0.0188
C 7.5996 -1.0676 -0.6084
C 6.2061 -1.1173 -0.5044
H -1.9261 -0.2044 -0.8974
H -2.8427 -0.3635 -3.1731
H 1.1238 -0.3152 -4.8165
H 2.0610 -0.1274 -2.5534
H 1.3875 -2.8140 -1.1534
H 0.7279 -5.0602 -0.3204
H -1.0485 -3.2844 3.1592
H -0.4256 -1.0543 2.3466
H -1.6547 1.0229 0.8367
H -2.3230 3.0056 2.0842
H 1.7961 4.0650 2.6422
H 2.5199 2.0195 1.3150
H 5.5936 1.8231 0.9673
H 8.0331 2.0025 0.8210
H 11.4721 1.0098 -0.1990
H 10.3082 1.4723 1.0973
H 10.0897 2.0979 -0.5956
H 8.1337 -1.8885 -1.0715
H 5.6564 -1.9656 -0.8920
