53
 
P 0.9444 0.0828 0.0076
C 0.4627 0.4685 -1.7019
C -0.5067 1.4492 -1.9720
C -0.9240 1.7243 -3.2671
C -0.3965 1.0005 -4.3297
C 0.5540 0.0024 -4.0880
C 0.9876 -0.2626 -2.7788
C 0.5263 -1.6143 0.4992
C -0.1143 -2.4957 -0.3957
C -0.4414 -3.7999 0.0004
C -0.1421 -4.2352 1.2923
C 0.4794 -3.3657 2.1918
C 0.8132 -2.0617 1.7986
C 0.0863 1.3201 1.0731
C 0.6049 2.7189 0.7343
C -0.3153 3.7331 0.3854
C 0.1185 4.9861 -0.0465
C 1.4802 5.2729 -0.0898
C 2.4162 4.3050 0.3103
C 1.9990 3.0136 0.7121
Pt 3.4044 0.0828 0.0076
N 5.5044 0.0828 0.0076
C 6.1293 1.1331 0.5944
C 7.5278 1.2591 0.5184
O 8.1923 2.3291 1.0254
C 7.5993 3.4117 1.6435
C 8.2507 0.2624 -0.1476
C 7.5839 -0.8192 -0.7302
C 6.1915 -0.8900 -0.6450
H -0.9841 1.9972 -1.1984
H -1.6718 2.4904 -3.4340
H -0.7391 1.2085 -5.3341
H 0.9452 -0.5692 -4.9176
H 1.7127 -1.0475 -2.6059
H -0.3674 -2.1883 -1.3998
H -0.9297 -4.4756 -0.6923
H -0.3957 -5.2442 1.5975
H 0.7003 -3.7049 3.1957
H 1.2863 -1.4012 2.5120
H 0.3874 1.1138 2.1255
H -1.0159 1.2384 1.0113
H -1.3809 3.5395 0.4028
H -0.6066 5.7299 -0.3625
H 1.8031 6.2482 -0.4429
H 3.4669 4.5624 0.2749
H 2.7617 2.2304 0.9617
H 5.5197 1.8803 1.0836
H 8.3704 4.1787 1.8578
H 7.1244 3.0955 2.5960
H 6.8375 3.8679 0.9734
H 9.3277 0.3368 -0.2327
H 8.1386 -1.5793 -1.2653
H 5.6546 -1.6965 -1.1266
