71
 
P 0.9668 -0.0910 0.0247
C -0.0770 1.4457 0.3238
C 0.0657 2.2070 1.6982
C 1.4632 2.7979 1.9570
C 1.9388 3.6902 0.8008
C 1.8009 2.9569 -0.5378
C 0.3443 2.4660 -0.7605
C 0.6708 -0.6953 -1.7632
C 1.3428 -2.0728 -2.0597
C 0.6396 -3.2761 -1.4302
C -0.7549 -3.4131 -2.0072
C -1.5454 -2.1200 -1.7477
C -0.8028 -0.8578 -2.2685
C 0.4399 -1.1888 1.4675
C 1.2439 -2.2838 1.9470
C 2.6143 -2.6054 1.4748
C 0.7448 -3.2180 2.8717
C -0.5547 -3.1451 3.3287
C -1.3825 -2.1325 2.8623
C -0.9040 -1.1751 1.9420
Pt 3.4268 -0.0910 0.0247
C 5.5768 -0.0910 0.0247
N 6.3213 0.0972 1.1226
C 5.8091 0.3309 2.4631
C 4.2676 0.3329 2.4455
C 7.6097 0.0293 0.7261
C 7.6238 -0.2012 -0.6377
N 6.3444 -0.2629 -1.0589
C 5.8565 -0.4646 -2.4084
C 4.3147 -0.4513 -2.3937
H -1.1420 1.1786 0.1890
H -0.2225 1.5761 2.5627
H -0.6301 3.0783 1.6834
H 2.1305 1.9535 2.0965
H 1.4912 3.3921 2.9005
H 3.0025 3.9852 0.9629
H 1.3357 4.6241 0.7738
H 2.5061 2.1011 -0.5384
H 2.1055 3.6347 -1.3620
H 0.2574 2.0052 -1.7609
H -0.3461 3.3369 -0.7558
H 1.1602 0.0667 -2.4033
H 2.3421 -2.1266 -1.6838
H 1.3754 -2.2414 -3.1631
H 0.5768 -3.1580 -0.3413
H 1.2219 -4.2026 -1.6361
H -1.2655 -4.2846 -1.5381
H -0.6683 -3.6213 -3.0977
H -1.7272 -2.0250 -0.6616
H -2.5280 -2.2208 -2.2630
H -1.4013 0.0545 -2.0809
H -0.7497 -0.9835 -3.3765
H 2.9434 -1.9042 0.7261
H 2.6306 -3.5920 0.9760
H 3.2987 -2.6354 2.3515
H 1.3658 -4.0428 3.2122
H -0.9183 -3.9014 4.0189
H -2.4116 -2.1198 3.2013
H -1.6246 -0.4598 1.5842
H 6.1850 1.3124 2.8301
H 6.1993 -0.4624 3.1398
H 3.9009 1.0673 1.7417
H 3.9055 0.4787 3.4870
H 3.8839 -0.5800 2.0609
H 8.4725 0.1403 1.3710
H 8.4971 -0.3084 -1.2694
H 6.2462 -1.4415 -2.7839
H 6.2556 0.3379 -3.0654
H 4.0234 -1.1931 -1.6796
H 3.9631 -0.6497 -3.4294
H 3.8645 0.4555 -1.9843
