57
 
P 1.0690 0.0453 -0.0564
C 0.1620 1.2249 -1.0942
C 0.5716 -1.5498 -0.7606
C 0.5731 0.5398 1.6159
Pt 3.5290 0.0453 -0.0564
P 5.9890 0.0453 -0.0564
C 6.8141 -0.5595 1.4413
C 7.5687 -1.7423 1.4988
C 8.0211 -2.2316 2.7340
C 7.7219 -1.5507 3.9262
C 8.1496 -2.0895 5.2620
C 6.9837 -0.3644 3.8686
C 6.5303 0.1217 2.6403
C 6.4070 -1.0331 -1.4376
C 5.3943 -1.5920 -2.2221
C 5.7340 -2.4754 -3.2651
C 7.0831 -2.7894 -3.5293
C 7.4639 -3.8210 -4.5538
C 8.0910 -2.1560 -2.7956
C 7.7563 -1.2812 -1.7621
C 6.5447 1.7582 -0.1167
C 5.6450 2.8298 -0.1450
C 6.1180 4.1325 -0.3692
C 7.4907 4.3686 -0.5677
C 8.0044 5.7352 -0.9196
C 8.3903 3.3007 -0.4769
C 7.9202 2.0075 -0.2508
H -0.9340 1.1503 -1.0287
H 0.5078 1.0726 -2.1430
H 0.5076 2.2459 -0.8098
H -0.5401 -1.5999 -0.7508
H 0.9491 -2.3587 -0.0998
H 0.9476 -1.6844 -1.7911
H -0.5386 0.5236 1.6650
H 0.9489 1.5448 1.8808
H 0.9516 -0.2187 2.3333
H 7.7704 -2.3232 0.6146
H 8.5779 -3.1594 2.7631
H 8.7004 -3.0483 5.1604
H 7.2511 -2.2750 5.8911
H 8.8012 -1.3549 5.7789
H 6.7325 0.1674 4.7798
H 5.9194 1.0168 2.6347
H 4.3509 -1.3367 -2.0031
H 4.9499 -2.9326 -3.8531
H 6.5685 -4.2877 -5.0141
H 8.0314 -4.6269 -4.0359
H 8.1070 -3.3924 -5.3502
H 9.1364 -2.3631 -3.0045
H 8.5611 -0.8279 -1.2007
H 4.5824 2.6564 -0.0395
H 5.4117 4.9505 -0.4268
H 7.1788 6.4725 -1.0038
H 8.5097 5.6819 -1.9102
H 8.7360 6.0898 -0.1655
H 9.4528 3.4619 -0.6204
H 8.6346 1.1977 -0.2266
