43
 
P 1.0361 -0.0609 -0.0706
O 0.5870 -0.5439 1.5150
C 0.9812 -1.8267 1.9016
C 2.4877 -2.0327 1.8428
O 0.6585 1.3472 -0.9542
C -0.6973 1.6437 -0.6782
C -1.0468 3.0554 -1.1346
C 0.3558 -1.4204 -1.0691
C -0.8882 -2.0348 -0.8772
C -1.2297 -3.1695 -1.6374
C -0.3445 -3.6843 -2.5939
C 0.8815 -3.0608 -2.8098
C 1.2297 -1.9408 -2.0509
Pt 3.4961 -0.0609 -0.0706
N 5.5961 -0.0609 -0.0706
C 6.2424 -1.0171 0.6496
C 7.6366 -0.9608 0.8055
C 8.3638 -1.9321 1.6880
C 8.3453 0.0627 0.1645
C 7.6623 1.0164 -0.5921
C 6.2700 0.9449 -0.6883
H 0.4084 -2.6019 1.3596
H 0.6719 -1.9163 2.9693
H 2.8384 -2.0305 0.7985
H 2.6985 -3.0295 2.2824
H 2.9947 -1.2493 2.4429
H -0.9431 1.5987 0.4129
H -1.3381 0.9366 -1.2439
H -0.4851 3.8142 -0.5484
H -2.1349 3.2337 -0.9826
H -0.8159 3.1745 -2.2124
H -1.5691 -1.6684 -0.1250
H -2.1744 -3.6684 -1.4758
H -0.6021 -4.5698 -3.1646
H 1.5695 -3.4566 -3.5511
H 2.2011 -1.4891 -2.2240
H 5.6608 -1.7846 1.1445
H 7.6717 -2.6730 2.1413
H 8.8393 -1.3620 2.5161
H 9.1535 -2.4679 1.1226
H 9.4213 0.1327 0.2703
H 8.2052 1.8213 -1.0701
H 5.7227 1.7069 -1.2266
