34
 
P 0.9878 0.0108 0.0987
C 0.0705 -1.2146 -0.8756
C 0.4931 -0.4042 1.7931
C 0.4952 1.5688 -0.6870
Pt 3.4478 0.0108 0.0987
P 5.9078 0.0108 0.0987
N 6.8269 1.5250 0.1731
C 6.4712 2.3575 1.3401
C 8.2502 1.4213 -0.0678
O 6.4327 -0.6783 1.5665
C 6.0577 -2.0362 1.5561
O 6.2188 -0.2864 -1.5538
C 5.8407 -1.6093 -1.8550
H -1.0248 -1.1306 -0.8087
H 0.4118 -2.2220 -0.5419
H 0.4116 -1.1167 -1.9323
H -0.6185 -0.3860 1.8431
H 0.8728 0.3862 2.4745
H 0.8691 -1.3962 2.1032
H -0.6163 1.6226 -0.6808
H 0.8714 1.6474 -1.7233
H 0.8761 2.4099 -0.0702
H 5.3699 2.3713 1.5163
H 6.7582 3.4165 1.1496
H 6.9835 2.0164 2.2636
H 8.4106 0.9582 -1.0611
H 8.7330 0.8372 0.7365
H 8.6764 2.4488 -0.1161
H 6.5523 -2.5480 2.4074
H 6.4179 -2.5818 0.6578
H 4.9575 -2.1421 1.6803
H 5.7094 -1.6907 -2.9533
H 4.8595 -1.8938 -1.4099
H 6.6415 -2.3293 -1.5787
