77
 
P 0.9287 0.0193 0.0674
C 0.3516 -1.7381 -0.3419
C 0.3088 -2.8204 -1.4760
C 1.6524 -3.6427 -1.5699
C 1.9070 -4.4836 -0.2908
C 2.0132 -3.6074 0.9011
C 0.8700 -2.5933 0.8458
C 0.2448 0.4093 1.7948
C 0.6410 -0.5070 2.9729
C 2.1692 -0.4370 3.1967
C 2.5327 0.9917 3.5934
C 2.1332 1.9539 2.4685
C 0.6174 1.8458 2.2281
C 0.7100 1.1804 -1.3690
C -0.4767 1.9863 -1.5073
C -1.7110 1.8760 -0.6405
C -0.5369 2.9828 -2.4979
C 0.5274 3.2221 -3.3550
C 0.4647 4.3319 -4.3625
C 1.6648 2.4349 -3.2618
C 1.7775 1.4212 -2.2974
C 3.0785 0.6696 -2.3104
Pt 3.3887 0.0193 0.0674
C 5.5387 0.0193 0.0674
N 6.4223 -0.9442 -0.3228
C 6.1542 -2.2700 -0.8643
C 7.6635 -0.4246 -0.1067
C 8.9914 -1.0871 -0.3721
C 7.5269 0.8436 0.4101
C 8.6466 1.7766 0.7983
N 6.2083 1.1128 0.5136
C 5.6113 2.3476 1.0125
H 1.1294 -1.3528 -1.0086
H 0.0250 -2.3957 -2.4687
H -0.4957 -3.5564 -1.2367
H 2.5021 -2.9443 -1.7513
H 1.5900 -4.3580 -2.4041
H 2.8518 -5.0659 -0.3377
H 1.0543 -5.1648 -0.1202
H 3.0770 -3.2187 0.9596
H 1.9255 -4.1550 1.8781
H 1.5965 -1.9358 1.2572
H -0.0257 -3.1342 1.2361
H -0.8621 0.3468 1.7179
H 0.2606 -1.5341 2.8735
H 0.1062 -0.1693 3.8917
H 2.7848 -0.6992 2.2639
H 2.4200 -1.1221 4.0351
H 3.6196 1.0632 3.7869
H 1.9993 1.2658 4.5364
H 2.7161 1.6987 1.5264
H 2.3586 2.9910 2.8020
H 0.2920 2.6076 1.4958
H 0.0737 2.0860 3.1780
H -1.4883 1.9619 0.4259
H -2.2553 0.9359 -0.8580
H -2.4184 2.7162 -0.8275
H -1.4207 3.6025 -2.5960
H -0.5205 4.8450 -4.3455
H 0.6400 3.9322 -5.3818
H 1.2471 5.0838 -4.1222
H 2.4878 2.6359 -3.9393
H 3.5930 0.7646 -3.2900
H 2.9237 -0.4188 -2.1627
H 3.7819 1.1507 -1.6078
H 5.0663 -2.4580 -0.9445
H 6.6152 -3.0359 -0.2026
H 6.6201 -2.3545 -1.8709
H 8.8901 -2.1063 -0.7896
H 9.5689 -1.1495 0.5763
H 9.5751 -0.4685 -1.0887
H 9.6443 1.3239 0.6204
H 8.5753 2.0228 1.8780
H 8.5865 2.7095 0.2009
H 6.3940 3.0784 1.3095
H 4.9947 2.1306 1.9051
H 4.9895 2.8121 0.2207
