39
 
P 1.0754 0.0343 0.0561
C 0.0911 -0.5330 -1.3602
C 0.6076 -1.1866 1.3128
C 0.6074 1.7853 0.1217
Pt 3.5354 0.0343 0.0561
P 5.9954 0.0343 0.0561
C 6.8613 1.2513 -1.0464
C 6.4573 1.0560 -2.5272
C 6.4011 2.6681 -0.6519
C 6.4687 0.5295 1.7676
C 5.9799 -0.5191 2.7763
C 7.9991 0.6523 1.8886
C 6.4505 -1.5765 -0.6478
H -0.9983 -0.4725 -1.2097
H 0.4004 -1.5800 -1.5828
H 0.4008 0.0708 -2.2440
H -0.5027 -1.2073 1.3828
H 1.0060 -0.8589 2.2953
H 0.9855 -2.1949 1.0598
H -0.5028 1.8490 0.1579
H 0.9861 2.3396 -0.7574
H 1.0052 2.2268 1.0589
H 7.9620 1.1704 -0.9687
H 5.3505 1.0846 -2.6590
H 6.8412 0.1031 -2.9401
H 6.8807 1.8742 -3.1538
H 5.2952 2.7680 -0.7593
H 6.8792 3.4330 -1.2994
H 6.6706 2.9108 0.3916
H 5.9965 1.5007 2.0145
H 6.5053 -1.4905 2.6330
H 4.8869 -0.6860 2.6781
H 6.1938 -0.1715 3.8117
H 8.4984 -0.3055 1.6205
H 8.2909 0.9235 2.9246
H 8.3936 1.4465 1.2259
H 6.0456 -1.7151 -1.6666
H 6.0593 -2.3721 0.0209
H 7.5593 -1.6552 -0.6598
