52
 
P 1.0208 -0.0633 0.0746
C 0.2345 1.5139 0.4615
C -1.1352 1.8011 0.4190
C -1.5893 3.0627 0.8518
C -0.6864 4.0248 1.3279
C 0.6761 3.7413 1.3621
C 1.1308 2.4979 0.9278
C 0.5320 -0.1922 -1.6679
C 0.8796 0.7453 -2.6382
C 0.4254 0.5901 -3.9583
C -0.3671 -0.5063 -4.3206
C -0.6961 -1.4682 -3.3682
C -0.2501 -1.3153 -2.0493
C 0.5878 -1.3576 1.2694
C 1.0991 -2.6759 1.1202
C 2.1133 -3.0606 0.0716
C 0.6442 -3.6948 1.9743
C -0.2941 -3.4254 2.9688
C -0.7710 -2.1273 3.1424
C -0.3323 -1.0964 2.3029
Pt 3.4808 -0.0633 0.0746
N 5.5808 -0.0633 0.0746
C 6.2209 -0.9526 0.8809
C 7.6187 -0.9201 1.0025
C 8.3451 -1.8717 1.9080
C 8.3338 0.0389 0.2744
C 7.6564 0.9284 -0.5628
C 6.2630 0.8605 -0.6519
H -1.8423 1.0615 0.0757
H -2.6439 3.2979 0.8365
H -1.0374 4.9886 1.6782
H 1.3805 4.4766 1.7379
H 2.1953 2.2923 0.9857
H 1.4900 1.5916 -2.3699
H 0.6832 1.3256 -4.7046
H -0.7240 -0.6123 -5.3393
H -1.3018 -2.3249 -3.6544
H -0.5297 -2.0807 -1.3319
H 2.4321 -2.2238 -0.5755
H 1.6952 -3.8570 -0.5785
H 3.0267 -3.4450 0.5732
H 1.0076 -4.7094 1.8575
H -0.6517 -4.2267 3.6046
H -1.4986 -1.9269 3.9190
H -0.7434 -0.1080 2.4497
H 5.6330 -1.6620 1.4497
H 7.6486 -2.5917 2.3882
H 8.8665 -1.3026 2.7070
H 9.0962 -2.4449 1.3251
H 9.4123 0.0979 0.3594
H 8.2060 1.6738 -1.1225
H 5.7223 1.5607 -1.2744
