30
 
P 1.2750 0.0000 0.0000
O 0.4304 1.4813 -0.2782
C -0.9646 1.3691 -0.2862
C -1.4029 -0.0515 0.0112
C -2.9341 -0.1162 0.0239
C -0.7789 -0.9524 -1.1217
O 0.6225 -0.7648 -1.3633
O 0.6291 -0.2064 1.5527
C -0.7818 -0.4255 1.4120
Pt 3.7350 0.0003 -0.0005
N 5.8350 0.0006 -0.0009
C 6.4783 0.1265 -1.1914
F 5.7562 0.2495 -2.3318
C 7.8744 0.1349 -1.2374
C 8.5954 0.0104 -0.0476
F 9.9510 0.0186 -0.0713
C 7.9150 -0.1226 1.1662
C 6.5161 -0.1273 1.1685
F 5.8346 -0.2527 2.3330
H -1.3343 1.6975 -1.2831
H -1.3633 2.0722 0.4777
H -3.3354 0.2075 -0.9626
H -3.3361 0.5806 0.7933
H -3.2844 -1.1425 0.2424
H -1.2923 -0.6983 -2.0750
H -0.9850 -2.0210 -0.9034
H -1.2765 0.2097 2.1802
H -1.0146 -1.4839 1.6483
H 8.3903 0.2384 -2.1835
H 8.4654 -0.2194 2.0930
