65
 
P 1.0594 0.0590 -0.0547
C 0.2515 1.3532 -1.1448
C 0.6892 2.7879 -0.8160
C 2.2077 2.9958 -1.0280
C 2.6423 2.6649 -2.4667
C 2.2068 1.2504 -2.8544
C 0.6791 1.1040 -2.6482
C 0.3791 -1.5839 -0.8469
C 0.7659 -3.0288 -0.3674
C 0.0732 -3.4946 0.9311
C -1.4578 -3.4193 0.8097
C -1.8567 -2.0154 0.3889
C -1.1807 -1.6004 -0.9371
C 0.8431 0.5521 1.8376
C 1.9410 0.8128 2.7490
C 3.3243 1.1235 2.3535
C 1.7858 0.8290 4.1579
C 0.5623 0.6391 4.7506
C -0.5491 0.5113 3.9359
C -0.4253 0.4938 2.5165
Pt 3.5194 0.0590 -0.0547
C 5.6694 0.0590 -0.0547
N 6.5293 -1.0019 -0.0954
C 6.2817 -2.4388 -0.1025
C 7.7742 -0.4741 -0.0727
Cl 9.2799 -1.3856 -0.0908
C 7.6782 0.8889 -0.0244
Cl 9.0349 2.0112 -0.0001
N 6.3723 1.2214 -0.0096
C 5.8417 2.5793 -0.0059
H -0.8481 1.3133 -1.0609
H 0.3979 3.0323 0.2234
H 0.1306 3.4823 -1.4914
H 2.7829 2.3324 -0.3399
H 2.4560 4.0591 -0.8130
H 3.7448 2.7540 -2.5615
H 2.1937 3.3870 -3.1824
H 2.7556 0.4988 -2.2488
H 2.4878 1.0667 -3.9169
H 0.3653 0.1168 -3.0304
H 0.1802 1.8352 -3.3216
H 0.7814 -1.5591 -1.8744
H 1.8601 -3.1802 -0.3199
H 0.3902 -3.7388 -1.1513
H 0.4209 -2.8582 1.7670
H 0.3354 -4.5548 1.1536
H -1.9260 -3.6684 1.7915
H -1.8502 -4.1454 0.0635
H -1.5309 -1.3836 1.1942
H -2.9625 -1.9478 0.3136
H -1.5730 -0.6375 -1.2902
H -1.5038 -2.3390 -1.7041
H 3.3746 1.3693 1.3140
H 4.0115 0.3274 2.7079
H 3.6011 2.0929 2.8237
H 2.6383 0.9873 4.8179
H 0.4891 0.6254 5.8400
H -1.5080 0.3994 4.4341
H -1.3541 0.3940 2.0014
H 5.2010 -2.6710 -0.0859
H 6.7661 -2.8847 0.7978
H 6.7648 -2.8965 -0.9941
H 6.6636 3.3270 -0.0081
H 5.2120 2.7529 0.8850
H 5.2572 2.7407 -0.9276
