62
 
P 0.9261 -0.0664 0.0118
C 0.4163 1.6192 0.4782
C -0.9541 1.9919 0.4762
C -1.3409 3.3163 0.7223
C -0.3726 4.2834 0.9817
C 0.9834 3.9257 0.9958
C 1.3820 2.5958 0.7421
C 0.4691 -0.5895 -1.7650
C 1.1816 -1.4833 -2.6329
C 0.7429 -1.7570 -3.9547
C -0.4051 -1.1577 -4.4585
C -1.1045 -0.2669 -3.6574
C -0.6718 0.0137 -2.3484
C 0.0797 -1.1669 1.3115
C 0.4714 -2.6575 1.0983
C 2.0124 -2.8078 1.0418
C 2.6335 -2.3820 2.3810
C 2.1161 -1.0080 2.8742
C 0.5790 -0.8606 2.7676
Pt 3.3861 -0.0664 0.0118
C 5.5361 -0.0664 0.0118
N 6.3129 -0.8062 -0.7977
C 5.8670 -1.7323 -1.8339
C 4.5266 -2.3457 -1.4629
C 7.5852 -0.5053 -0.4642
C 7.5561 0.4242 0.5600
N 6.2662 0.6887 0.8488
C 5.7435 1.6154 1.8509
C 6.2033 1.2242 3.2532
H -1.7397 1.2794 0.2589
H -2.3903 3.6004 0.6983
H -0.6776 5.3104 1.1627
H 1.7208 4.6923 1.1875
H 2.4377 2.3107 0.7197
H 2.0681 -1.9966 -2.3569
H 1.2848 -2.4382 -4.6078
H -0.7503 -1.3764 -5.4689
H -1.9906 0.2118 -4.0577
H -1.2549 0.7198 -1.7993
H -1.0249 -1.0654 1.2893
H -0.0043 -3.0510 0.1820
H 0.0891 -3.2881 1.9445
H 2.4435 -2.1899 0.2165
H 2.2906 -3.8644 0.8298
H 3.7431 -2.3524 2.2787
H 2.3863 -3.1623 3.1315
H 2.5489 -0.2012 2.2596
H 2.4611 -0.8479 3.9222
H 0.2828 0.1567 3.0967
H 0.1003 -1.5671 3.4941
H 6.6118 -2.5448 -1.9630
H 5.7642 -1.1813 -2.7942
H 4.5923 -2.8850 -0.4973
H 4.1927 -3.0449 -2.2575
H 3.8017 -1.5323 -1.3734
H 8.4686 -0.9242 -0.9275
H 8.4086 0.8730 1.0534
H 4.6291 1.6157 1.8191
H 6.1024 2.6409 1.6203
H 5.8256 0.2130 3.5138
H 5.8127 1.9551 3.9926
H 7.3125 1.2274 3.3124
