56
 
C 0.9010 -0.6430 -0.0020
N -0.3603 -1.0936 -0.0184
C -0.7456 -2.4999 -0.0216
C 0.5485 -3.3562 0.0071
C -1.6299 -2.7748 1.2125
C -1.5554 -2.8323 -1.2937
C -1.1493 0.0028 -0.0226
C -0.3321 1.1152 0.0007
N 0.9531 0.6930 0.0121
C 2.1834 1.4878 0.0403
C 2.1598 2.4074 1.2846
C 3.4296 0.5256 0.0695
C 2.2219 2.3724 -1.2200
Pt 2.6584 -1.8814 -0.0135
P 4.6693 -3.2985 -0.0267
C 6.1862 -2.6731 -0.8202
C 5.3110 -3.2116 1.6684
C 4.2167 -4.9000 -0.8277
C 3.7642 -4.5966 -2.2718
C 5.4227 -5.8520 -0.8617
C 3.1028 -5.5956 -0.0639
H 1.2254 -3.1225 0.8394
H 1.1692 -3.1844 -0.8840
H 0.2268 -4.4181 0.0719
H -1.0886 -2.5251 2.1480
H -1.9494 -3.8378 1.2484
H -2.5534 -2.1517 1.1753
H -0.9519 -2.6430 -2.2062
H -2.4795 -2.2166 -1.3544
H -1.8623 -3.9017 -1.2937
H -2.2319 -0.0015 -0.0348
H -0.6561 2.1479 0.0123
H 2.1069 1.8161 2.2221
H 1.2700 3.0794 1.2627
H 3.0581 3.0595 1.3184
H 3.4217 -0.1522 0.9374
H 4.3561 1.1328 0.1060
H 3.4700 -0.1140 -0.8255
H 1.3386 3.0507 -1.2537
H 2.1989 1.7412 -2.1325
H 3.1346 3.0037 -1.2372
H 6.4329 -1.6611 -0.4408
H 5.9069 -2.5129 -1.8908
H 7.0474 -3.3583 -0.7933
H 5.5514 -2.1876 1.9994
H 6.2145 -3.8623 1.7245
H 4.5514 -3.6715 2.3375
H 4.5849 -4.1346 -2.8606
H 2.9064 -3.8914 -2.2790
H 3.4600 -5.5245 -2.7998
H 6.2700 -5.4157 -1.4264
H 5.1453 -6.8041 -1.3653
H 5.7623 -6.0883 0.1692
H 2.2658 -4.9402 -0.0385
H 3.3856 -5.8143 0.9846
H 2.7751 -6.5248 -0.5768
