40
 
C 0.9010 -0.6430 -0.0020
N -0.3429 -1.1012 0.0320
C -0.6884 -2.5160 0.0638
C -1.5870 -2.8273 -1.1411
C 0.6165 -3.3972 0.0780
C -1.1373 -0.0054 0.0327
C -0.3208 1.1160 -0.0005
N 0.9602 0.6926 -0.0180
C 2.2003 1.4732 -0.0349
C 3.4241 0.5180 -0.0513
C 2.2171 2.4167 -1.2487
Pt 2.6584 -1.8814 -0.0135
N 4.3750 -3.0911 -0.0247
C 4.8430 -2.4027 -1.2516
N 4.3160 -4.4548 -0.1452
C 5.4602 -4.9700 0.1502
C 6.3155 -4.0000 0.6683
C 5.5913 -2.8189 0.6544
H -1.2752 -2.7083 0.9914
H -1.0475 -2.6143 -2.0877
H -2.4991 -2.1871 -1.1163
H -1.9199 -3.8842 -1.1285
H 1.2364 -3.2613 -0.8183
H 0.3038 -4.4591 0.1585
H 1.2730 -3.1645 0.9287
H -2.2194 -0.0108 0.0544
H -0.6376 2.1515 -0.0111
H 2.2429 2.0976 0.8836
H 3.3521 -0.1196 -0.9348
H 3.4525 -0.1384 0.8320
H 4.3643 1.1033 -0.0748
H 2.1525 1.8479 -2.2002
H 3.1466 3.0248 -1.2516
H 1.3581 3.1222 -1.2029
H 4.0538 -2.4839 -2.0270
H 5.7724 -2.8195 -1.7198
H 5.0217 -1.3140 -1.1036
H 5.6972 -6.0184 0.0283
H 7.3304 -4.1261 1.0230
H 5.9414 -1.8509 1.0035
