70
 
C 0.9010 -0.6430 -0.0020
N -0.3647 -1.1662 -0.0981
C -0.9077 -2.5459 -0.0094
C -2.1395 -2.7920 0.6944
C -2.8734 -1.7470 1.4589
C -2.7155 -4.0617 0.7685
C -2.1228 -5.1517 0.1677
C -2.8017 -6.4916 0.2634
C -0.9027 -4.9728 -0.4905
C -0.2807 -3.6916 -0.5583
C 1.0464 -3.5982 -1.1888
C -1.1460 -0.0817 -0.1264
C -0.4059 1.0345 -0.0028
N 0.9159 0.7457 0.0900
C 2.0637 1.7365 0.0815
C 1.9367 3.1875 0.1194
C 0.7028 4.0412 0.1923
C 3.0920 4.0173 0.0896
C 4.3749 3.5011 0.0151
C 5.6138 4.3274 0.0075
C 4.5342 2.1622 -0.0544
C 3.4380 1.3151 -0.0294
C 3.8361 -0.0400 -0.0534
Pt 2.6584 -1.8814 -0.0135
P 4.6693 -3.2985 -0.0267
C 6.2133 -2.6951 0.7281
C 4.3358 -4.5819 1.2163
C 5.0235 -3.8893 -1.7753
C 5.3558 -2.6889 -2.6951
C 6.1891 -4.9053 -1.7947
C 3.8185 -4.5892 -2.3711
H -2.1568 -1.0007 1.8287
H -3.2490 -2.1077 2.4359
H -3.6981 -1.3823 0.8086
H -3.6436 -4.2029 1.3151
H -3.7561 -6.4253 0.8360
H -2.1506 -7.2221 0.7859
H -3.0526 -6.8519 -0.7544
H -0.4318 -5.8444 -0.9351
H 1.2084 -4.5449 -1.7465
H 1.7507 -3.7428 -0.3498
H 1.0781 -2.7807 -1.9436
H -2.2197 -0.0550 -0.2128
H -0.9534 1.9206 -0.0319
H -0.2765 3.6424 0.2576
H 0.6761 4.6806 -0.7150
H 0.7602 4.6538 1.1108
H 2.9922 5.0937 0.1287
H 5.3771 5.4039 0.0588
H 6.1791 4.1033 -0.9236
H 6.2429 4.0358 0.8801
H 5.5502 1.7690 -0.1093
H 4.9020 -0.2634 -0.2493
H 3.3449 -0.3606 -1.0172
H 3.7254 -0.0860 1.0547
H 5.9793 -2.3169 1.7522
H 6.5195 -1.7978 0.1486
H 7.0472 -3.4111 0.7415
H 4.1642 -4.1660 2.2277
H 5.2227 -5.2572 1.2471
H 3.4726 -5.1893 0.8847
H 6.2746 -2.1504 -2.3870
H 4.5128 -1.9630 -2.7031
H 5.5012 -3.0323 -3.7455
H 7.1493 -4.4702 -1.4504
H 6.3542 -5.2837 -2.8304
H 5.9487 -5.7844 -1.1596
H 3.0477 -3.8293 -2.5104
H 3.4948 -5.4393 -1.7328
H 4.0367 -4.9712 -3.3915
