30
 
C 0.9010 -0.6430 -0.0020
N -0.3514 -1.1096 0.0849
C -0.7324 -2.5084 0.1970
C -1.1568 -0.0282 0.0561
C -0.3576 1.0984 -0.0503
N 0.9287 0.6953 -0.0829
C 2.1261 1.5165 -0.1917
Pt 2.6584 -1.8814 -0.0135
N 4.3750 -3.0911 -0.0247
C 5.5739 -2.4979 -0.1823
C 5.5831 -1.0122 -0.3094
C 6.7299 -3.2912 -0.2781
C 6.6049 -4.6869 -0.2095
C 5.3447 -5.2669 -0.0423
C 4.2275 -4.4389 0.0487
H 0.1838 -3.1484 0.1998
H -1.3785 -2.7891 -0.6607
H -1.2923 -2.6654 1.1436
H -2.2374 -0.0527 0.1094
H -0.6896 2.1275 -0.0998
H 1.8576 2.5927 -0.2487
H 2.6891 1.2346 -1.1069
H 2.7737 1.3495 0.6946
H 4.5208 -0.6277 -0.2362
H 6.0083 -0.7398 -1.2995
H 6.2101 -0.5720 0.4925
H 7.7045 -2.8453 -0.4261
H 7.4771 -5.3222 -0.2978
H 5.2296 -6.3431 0.0015
H 3.2372 -4.8623 0.1584
