47
 
C 0.9010 -0.6430 -0.0020
N -0.3469 -1.1041 -0.0088
C -0.6959 -2.5219 -0.0069
C 0.6108 -3.3953 0.0125
C -1.6073 -2.8211 1.1969
C -1.1397 -0.0079 -0.0198
C -0.3196 1.1115 -0.0034
N 0.9618 0.6857 0.0111
C 2.2022 1.4590 0.0439
C 2.2130 2.3364 1.3048
C 3.4487 0.5141 -0.0003
Pt 2.6584 -1.8814 -0.0135
N 4.3750 -3.0911 -0.0247
C 5.5791 -2.4850 -0.1063
C 6.7350 -3.2414 -0.2666
C 6.6683 -4.6583 -0.3373
N 7.8458 -5.4673 -0.6139
C 9.1707 -4.8995 -0.8530
C 7.7980 -6.9183 -0.7693
C 5.3804 -5.2387 -0.1709
C 4.2520 -4.4354 -0.0256
H -1.2792 -2.7428 -0.9299
H 1.2476 -3.1912 0.8834
H 1.2448 -3.2102 -0.8651
H 0.3061 -4.4624 0.0170
H -1.0854 -2.5984 2.1504
H -1.9295 -3.8831 1.1925
H -2.5311 -2.1980 1.1557
H -2.2222 -0.0112 -0.0310
H -0.6346 2.1475 0.0018
H 2.2215 2.1227 -0.8483
H 2.1907 1.7046 2.2185
H 1.3194 2.9997 1.3246
H 3.1137 2.9832 1.3268
H 3.4986 -0.1598 0.8687
H 4.3647 1.1376 -0.0204
H 3.4475 -0.1195 -0.9019
H 5.6337 -1.4045 -0.1006
H 7.6367 -2.6678 -0.3656
H 9.2462 -3.8083 -0.7766
H 9.5021 -5.1587 -1.8818
H 9.8960 -5.3195 -0.1261
H 6.8157 -7.3827 -0.6255
H 8.4860 -7.3966 -0.0424
H 8.1154 -7.1874 -1.7996
H 5.1819 -6.2927 -0.1828
H 3.2693 -4.8821 0.0516
