47
 
C 1.0240 -0.6530 -0.0550
N 0.5460 0.0403 -1.0092
C 1.1661 0.1759 -2.3118
C 2.5124 -0.5770 -2.4224
C -0.6561 0.7312 -0.5914
C -0.9939 0.0849 0.7594
N 0.2449 -0.5596 1.1196
C 0.6070 -1.0796 2.4293
C -0.5128 -0.8968 3.4669
Pt 2.7802 -1.8697 -0.2955
C 4.5364 -3.0865 -0.5360
N 5.6961 -2.7442 -0.1157
C 6.0113 -1.4567 0.4659
C 5.2686 -1.2559 1.7800
C 6.6750 -3.7702 -0.4011
C 5.8205 -4.9760 -0.8161
N 4.5481 -4.3730 -1.1149
C 3.4941 -5.0082 -1.8815
C 2.2092 -5.2028 -1.0886
H 1.3419 1.2574 -2.5018
H 0.4596 -0.1994 -3.0835
H 3.2318 -0.2412 -1.6536
H 2.9380 -0.3868 -3.4262
H 2.3776 -1.6640 -2.3151
H -1.5110 0.6368 -1.2928
H -0.3886 1.8023 -0.4455
H -1.7466 -0.7269 0.6336
H -1.3576 0.8463 1.4794
H 1.5048 -0.5290 2.7889
H 0.8577 -2.1572 2.3544
H -0.7798 0.1754 3.5894
H -0.1864 -1.2730 4.4587
H -1.4171 -1.4620 3.1558
H 5.7449 -0.6476 -0.2500
H 7.1049 -1.3935 0.6622
H 4.1709 -1.2815 1.6126
H 5.5447 -0.2719 2.2135
H 5.5501 -2.0575 2.4948
H 7.3258 -4.0212 0.4632
H 7.2889 -3.4137 -1.2585
H 5.6586 -5.6445 0.0616
H 6.2753 -5.5409 -1.6555
H 3.8396 -6.0072 -2.2300
H 3.2861 -4.3859 -2.7770
H 2.3856 -5.8723 -0.2212
H 1.4548 -5.6816 -1.7522
H 1.8079 -4.2288 -0.7426
