82
 
P -1.3500 0.0010 0.7980
N -0.8557 -1.4576 -0.0955
C -1.9925 -1.9727 -0.8552
C 0.4046 -1.6493 -0.8194
C 1.5365 -0.9831 -0.1488
N 1.7051 0.4923 -0.3934
C 0.7725 1.6088 -0.8051
C -0.5467 1.2688 -1.5029
N -1.7206 0.9931 -0.6077
C -2.3650 2.2022 -0.0899
N 0.0671 0.0661 1.9933
C -0.1463 -0.5336 3.3187
C 1.3231 0.9332 1.9660
C 2.3666 0.9321 0.7985
Pt -3.3226 0.0026 2.2679
P -5.2952 0.0042 3.7377
C -6.3423 1.5784 3.4431
C -6.8297 1.6378 1.9747
C -7.5803 1.7443 4.3562
C -5.4260 2.8386 3.5291
C -6.2837 -1.5720 3.3059
C -5.4408 -2.8365 3.5807
C -7.5316 -1.6943 4.2134
C -6.7080 -1.6767 1.8304
C -4.6337 0.1184 5.4438
C -4.9067 1.1672 6.3351
C -4.3751 1.2000 7.6147
C -3.5400 0.1715 8.0959
N -2.8870 0.2688 9.3905
C -3.0173 1.4328 10.2668
C -1.9367 -0.7267 9.8747
C -3.3383 -0.9294 7.2252
C -3.8599 -0.9403 5.9301
H -2.9240 -1.9276 -0.2479
H -1.8238 -3.0351 -1.1256
H -2.1291 -1.3656 -1.7734
H 0.3769 -1.4411 -1.8989
H 0.6265 -2.7378 -0.7191
H 2.5037 -1.4868 -0.3607
H 1.4557 -1.3141 0.9105
H 1.3869 2.2726 -1.4596
H 0.5126 2.3472 -0.0204
H -0.3727 0.4860 -2.2554
H -0.7945 2.1619 -2.1193
H -2.6406 2.8827 -0.9229
H -1.7009 2.7481 0.6168
H -3.2993 1.9006 0.4585
H -1.1733 -0.3704 3.7040
H 0.5298 -0.0863 4.0948
H 0.1432 -1.5986 3.2551
H 0.9657 1.9619 2.0155
H 2.0245 0.5694 2.7609
H 3.2807 0.2976 0.9708
H 2.8470 1.9353 0.6738
H -7.6610 0.9628 1.7738
H -5.9857 1.4636 1.2667
H -7.2777 2.6265 1.7337
H -8.3769 1.0379 4.1094
H -8.0387 2.7431 4.2032
H -7.3890 1.6198 5.4292
H -4.5787 2.7504 2.8138
H -4.9846 3.0922 4.4974
H -6.0025 3.7485 3.2419
H -5.2643 -3.0000 4.6606
H -4.4848 -2.8131 3.0201
H -6.0013 -3.7466 3.2597
H -7.2561 -1.5690 5.2854
H -8.0291 -2.6807 4.1004
H -8.3124 -0.9738 3.9520
H -5.8322 -1.5541 1.1619
H -7.5082 -0.9943 1.5508
H -7.1772 -2.6651 1.6325
H -5.5122 2.0058 6.1056
H -4.6421 2.0739 8.1770
H -3.6917 2.2268 9.9257
H -2.0243 1.9180 10.3801
H -3.3885 1.1187 11.2630
H -1.7810 -1.5946 9.2239
H -2.2680 -1.1186 10.8575
H -0.9386 -0.2515 9.9847
H -2.7655 -1.7989 7.4833
H -3.6380 -1.7943 5.3145
