94
 
C 0.9010 -0.6430 -0.0020
N 0.9386 0.7380 -0.0513
C 2.0015 1.7429 -0.3159
C 1.7022 2.9461 -1.0458
C 0.3980 3.2180 -1.7203
C 2.6726 3.9263 -1.2992
C 3.9831 3.7652 -0.9010
C 5.0125 4.8049 -1.2543
C 4.3270 2.6049 -0.2269
C 3.3557 1.5979 0.0563
C 3.8286 0.3807 0.6993
C -0.3497 1.0942 0.0904
C -1.1393 0.0096 0.1048
N -0.4003 -1.1157 0.0749
C -0.9591 -2.4803 0.2373
C -0.3139 -3.6230 -0.2679
C 0.9213 -3.5240 -1.0401
C -0.8190 -4.9343 -0.0458
C -1.9716 -5.1398 0.7058
C -2.5381 -6.5018 0.9915
C -2.6191 -4.0441 1.2270
C -2.1504 -2.7412 1.0068
C -2.9448 -1.6915 1.6885
Pt 2.6584 -1.8814 -0.0135
P 4.6693 -3.2985 -0.0267
C 5.8985 -2.9739 1.4404
C 5.1592 -3.2068 2.8042
C 7.2269 -3.7383 1.5414
C 6.2618 -1.5095 1.4584
C 4.1177 -5.1496 -0.0881
C 3.4632 -5.4488 -1.4525
C 5.2796 -6.1754 -0.0696
C 3.1992 -5.5705 1.1050
C 5.8097 -2.7232 -1.3475
C 5.4931 -1.7072 -2.2494
C 6.3840 -1.3644 -3.2894
C 7.6417 -2.0215 -3.4585
N 8.5681 -1.7077 -4.5419
C 8.2646 -0.7412 -5.5896
C 9.8570 -2.3821 -4.7313
C 7.9195 -3.0580 -2.5485
C 7.0137 -3.4167 -1.5610
H -0.1718 2.2998 -1.9095
H 0.5755 3.5041 -2.7727
H -0.1434 4.0147 -1.1675
H 2.4095 4.8122 -1.8635
H 4.5547 5.6472 -1.8183
H 5.7946 4.3564 -1.9054
H 5.4801 5.2153 -0.3370
H 5.3723 2.4803 0.0512
H 4.8050 0.7011 1.1216
H 4.1082 -0.2927 -0.1229
H 3.2287 0.0868 1.5822
H -0.7483 2.0948 0.1453
H -2.1927 0.1281 0.1289
H 1.3073 -2.5676 -1.3461
H 0.7364 -4.1202 -1.9699
H 1.6356 -3.9324 -0.3530
H -0.3096 -5.8025 -0.4546
H -1.9431 -7.3105 0.5227
H -3.5814 -6.5524 0.6094
H -2.5624 -6.6664 2.0922
H -3.5061 -4.2186 1.8275
H -3.7637 -2.0933 2.3150
H -3.4858 -1.1308 0.9163
H -2.2534 -1.1211 2.3444
H 4.9325 -4.2528 3.0186
H 4.2172 -2.6127 2.8826
H 5.7971 -2.8858 3.6597
H 7.0889 -4.8141 1.6719
H 7.7727 -3.4101 2.4509
H 7.9402 -3.4861 0.7516
H 5.3211 -1.0784 1.6961
H 6.6996 -1.1414 0.5090
H 6.9075 -1.2124 2.3101
H 4.1969 -5.3493 -2.2719
H 2.7412 -4.7563 -1.8025
H 3.0046 -6.4643 -1.4639
H 5.9569 -6.0574 -0.9386
H 4.8712 -7.2117 -0.1450
H 5.8425 -6.1906 0.8664
H 2.2851 -4.9812 1.2600
H 3.7326 -5.5723 2.0639
H 2.8863 -6.6335 1.0008
H 4.5419 -1.2017 -2.1795
H 6.0377 -0.5874 -3.9427
H 7.3079 -0.2179 -5.4818
H 8.2300 -1.2693 -6.5660
H 9.0552 0.0385 -5.6301
H 10.1517 -3.1063 -3.9615
H 10.6816 -1.6375 -4.7645
H 9.8420 -2.9393 -5.6922
H 8.8144 -3.6516 -2.5719
H 7.2838 -4.2806 -0.9842
