59
 
C 0.9010 -0.6430 -0.0020
N -0.3527 -1.0091 -0.0005
C -0.7899 -2.3055 -0.4214
C -1.1570 -1.8063 -1.8395
C -0.1589 -2.4300 -2.7801
C -0.5799 -3.8735 -2.9112
C -0.5239 -4.5690 -1.5417
C -1.2838 -3.7954 -0.4373
C -1.0699 0.1143 0.3127
C -0.1879 1.1787 0.4164
N 1.0486 0.6855 0.2152
C 2.3699 1.3371 -0.0031
C 2.8564 0.9589 -1.4398
C 1.9740 1.6294 -2.5149
C 2.2140 3.1360 -2.4613
C 1.8020 3.6777 -1.0830
C 2.4629 2.8983 0.0862
Pt 2.6584 -1.8814 -0.0135
N 4.3750 -3.0911 -0.0247
C 5.2393 -2.9732 0.9985
C 4.9134 -1.9518 2.0310
C 6.3140 -3.8760 1.1020
C 6.4712 -4.8642 0.1181
C 5.5862 -4.9204 -0.9606
C 4.5292 -4.0064 -1.0159
C 3.6245 -3.9293 -2.2052
H -1.4410 -2.2770 0.4920
H -1.0283 -0.7105 -2.0535
H -2.2235 -1.9702 -2.0674
H 0.8873 -2.3203 -2.3822
H -0.2093 -1.9162 -3.7585
H 0.0776 -4.3754 -3.6452
H -1.6237 -3.8772 -3.2971
H 0.5359 -4.6312 -1.2253
H -0.9192 -5.5995 -1.6476
H -1.1015 -4.3687 0.5024
H -2.3898 -3.8211 -0.6331
H -2.1499 0.1593 0.3930
H -0.4436 2.2187 0.5654
H 3.0670 0.9062 0.7457
H 2.8389 -0.1376 -1.5930
H 3.9106 1.2803 -1.5944
H 0.8945 1.4030 -2.3535
H 2.2465 1.2550 -3.5244
H 1.6395 3.6529 -3.2633
H 3.2944 3.3234 -2.6581
H 0.7015 3.6187 -0.9976
H 2.0950 4.7532 -1.0319
H 2.1008 3.2808 1.0612
H 3.5498 3.1397 0.0261
H 3.9574 -1.4064 1.7070
H 5.7545 -1.2374 2.1229
H 4.7831 -2.4758 3.0081
H 6.9982 -3.8432 1.9395
H 7.2802 -5.5817 0.1806
H 5.7260 -5.6569 -1.7435
H 3.8848 -4.6924 -2.9710
H 3.7741 -2.9321 -2.6811
H 2.5676 -4.0073 -1.9038
