57
 
C 0.9010 -0.6430 -0.0020
N -0.3861 -1.0202 0.0333
C -0.7702 -2.4239 0.0772
C -0.3821 -2.8375 1.4823
C -1.6561 -3.3189 2.1393
C -2.0536 -4.6300 1.4664
C -2.3080 -4.4333 -0.0414
C -1.1543 -3.7161 -0.7447
C -1.1002 0.1197 0.1708
C -0.2092 1.1926 0.1627
N 1.0387 0.6969 0.0065
C 2.3744 1.3234 -0.0845
C 2.9551 0.8875 -1.4275
C 2.0756 1.5404 -2.5456
C 2.2574 3.0718 -2.4927
C 1.8054 3.6326 -1.1355
C 2.4602 2.8748 0.0315
Pt 2.6584 -1.8814 -0.0135
N 4.3750 -3.0911 -0.0247
C 4.3214 -4.3975 0.3698
O 3.1287 -4.9243 0.7511
C 2.9361 -6.2341 1.1504
C 5.5185 -5.1462 0.4283
C 6.7269 -4.5470 0.0797
C 6.7462 -3.2171 -0.3304
C 5.5499 -2.4988 -0.3725
H -0.0125 -2.5325 -0.7226
H -0.0080 -1.9831 2.0922
H 0.4378 -3.5837 1.4428
H -2.4573 -2.5440 2.0309
H -1.4673 -3.4713 3.2181
H -2.9674 -5.0275 1.9489
H -1.2194 -5.3490 1.6229
H -3.2097 -3.8077 -0.1788
H -2.4781 -5.4250 -0.5169
H -1.4598 -3.5659 -1.8120
H -0.2860 -4.4581 -0.7442
H -2.1714 0.1758 0.3072
H -0.4620 2.2370 0.2830
H 3.0058 0.9053 0.7306
H 3.0170 -0.2409 -1.3762
H 4.0018 1.2286 -1.5552
H 0.9904 1.3070 -2.4209
H 2.3674 1.1754 -3.5486
H 1.6777 3.5756 -3.2984
H 3.3329 3.2975 -2.6581
H 0.7061 3.5588 -1.0621
H 2.0689 4.7151 -1.0728
H 2.0632 3.2378 1.0032
H 3.5449 3.1315 0.0099
H 1.8830 -6.3775 1.4641
H 3.5904 -6.4834 2.0155
H 3.1584 -6.9209 0.3058
H 5.5341 -6.1759 0.7589
H 7.6482 -5.1132 0.1373
H 7.6819 -2.7448 -0.5996
H 5.5539 -1.4603 -0.6758
