19
 
C -0.3280 -1.0820 0.0030
N 0.9460 -0.6615 0.1135
H 1.7991 -1.2536 0.2168
C 0.8827 0.6819 0.0525
Cl 2.2696 1.7509 0.1376
C -0.4378 1.0538 -0.0883
Cl -1.0690 2.6855 -0.2064
N -1.1919 -0.0580 -0.1224
Pt -0.9444 -3.1417 0.0167
C -1.5608 -5.2014 0.0303
N -0.7225 -6.2519 0.1061
H 0.3194 -6.2251 0.1578
C -1.5150 -7.3400 0.0905
Cl -0.9391 -8.9946 0.1575
C -2.8283 -6.9262 0.0146
Cl -4.2562 -7.9436 -0.0149
N -2.8497 -5.5832 -0.0295
H -2.2293 -0.1206 -0.2203
H -3.6865 -4.9616 -0.0846
