43
 
C 2.3270 0.0340 0.0000
N 1.5416 1.1326 0.0093
C 2.0433 2.5095 0.0142
C 2.9514 2.7124 -1.2014
C 3.5240 4.1309 -1.3082
C 4.3587 4.2600 -2.5838
C 0.2728 0.6546 0.0007
C 0.3096 -0.7244 -0.0102
C -0.8728 -1.4856 -0.0035
C -2.1009 -0.8084 0.0025
C -2.1399 0.5987 0.0007
C -0.9468 1.3501 0.0017
N 1.5999 -1.1477 -0.0218
C 2.0362 -2.6012 -0.0591
C 2.6851 -3.0752 1.2364
C 2.0246 -2.6664 2.3700
C 2.6422 -2.6814 3.5941
C 3.7485 -3.4890 3.7932
C 4.2970 -4.1859 2.7103
C 3.8177 -3.9224 1.4025
Pt 4.4769 0.0580 0.0014
C 6.6267 0.0821 0.0028
O 7.8447 0.0957 0.0037
H 2.6410 2.6764 0.9356
H 1.2010 3.2334 -0.0003
H 2.3410 2.5173 -2.1159
H 3.8090 1.9823 -1.0949
H 4.1650 4.3407 -0.4255
H 2.7051 4.8843 -1.3422
H 5.1846 3.5173 -2.5796
H 4.7946 5.2781 -2.6601
H 3.7232 4.0824 -3.4792
H -0.8818 -2.5651 0.0011
H -3.0251 -1.3754 0.0071
H -3.1012 1.0982 0.0009
H -0.9967 2.4293 0.0035
H 2.6484 -2.8295 -0.9559
H 1.1376 -3.2400 -0.1523
H 1.2300 -3.4216 2.4776
H 2.2043 -2.0906 4.3818
H 4.1596 -3.5650 4.7887
H 5.1293 -4.8556 2.8977
H 4.3255 -4.3855 0.5648
