24
 
C -0.3280 -1.0820 0.0030
N -1.1531 -0.0360 -0.1891
H -2.1816 -0.0675 -0.3633
C -0.3661 1.0540 -0.1197
Cl -0.9281 2.7037 -0.3103
C 0.9290 0.6464 0.1222
Cl 2.3398 1.6695 0.3159
N 0.9468 -0.6955 0.1927
Pt -0.9444 -3.1417 0.0167
N -1.5465 -5.1535 0.0300
C -0.6352 -6.1290 0.2708
N -0.9994 -7.4334 0.1834
C -2.2684 -7.7881 -0.1637
O -2.6118 -9.0908 -0.2972
C -1.7215 -10.1314 -0.1324
C -3.2196 -6.7924 -0.4041
C -2.8314 -5.4576 -0.2834
H 1.7699 -1.3127 0.3694
H 0.3815 -5.8663 0.5280
H -2.2459 -11.0947 -0.2960
H -1.3059 -10.1176 0.8976
H -0.8929 -10.0476 -0.8693
H -4.2298 -7.0446 -0.7024
H -3.5320 -4.6617 -0.5007
