32
 
C -0.3280 -1.0820 0.0030
N -0.8422 -0.1328 -0.8012
H -1.5849 -0.2532 -1.5243
C -0.1833 0.9970 -0.4825
Cl -0.4501 2.5551 -1.2406
C 0.7163 0.7125 0.5233
Cl 1.8055 1.8356 1.3151
N 0.6257 -0.5956 0.8181
Pt -0.9444 -3.1417 0.0167
P -1.6497 -5.4984 0.0323
C -2.7498 -6.1138 1.3473
C -2.8212 -5.6233 -1.3506
C -0.1311 -6.5232 0.1106
C 0.6840 -6.2097 1.3603
C -0.5238 -8.0161 0.0714
C 0.7031 -6.2175 -1.1528
H 1.1660 -1.1248 1.5376
H -3.6485 -5.4528 1.3465
H -2.2567 -5.9466 2.3286
H -3.0775 -7.1582 1.2272
H -3.6867 -4.9470 -1.2344
H -3.1716 -6.6786 -1.4106
H -2.2790 -5.4020 -2.2941
H 0.0962 -6.4352 2.2722
H 0.9715 -5.1356 1.3621
H 1.6057 -6.8322 1.3717
H -1.1283 -8.2989 0.9559
H 0.3769 -8.6650 0.0584
H -1.1197 -8.2447 -0.8418
H 0.9949 -5.1468 -1.1916
H 0.1240 -6.4458 -2.0772
H 1.6263 -6.8361 -1.1814
