25
 
N -1.3996 -0.0941 -0.0425
C -0.5499 -1.0771 -0.5175
C 0.7866 -1.1604 -0.1005
Cl 1.7740 -2.5925 -0.4023
C 1.3151 -0.1128 0.5446
C 0.5455 1.0179 0.7703
C -0.8466 0.9585 0.6176
Pt -3.4786 -0.2026 -0.2779
N -5.5366 -0.2847 -0.4977
C -5.9188 0.3486 -1.7837
C -6.0011 -1.6669 -0.5265
C -6.2010 0.4558 0.5748
H -0.9062 -1.8033 -1.1860
H 2.3107 -0.1659 0.8553
H 1.0128 1.9049 1.0775
H -1.4573 1.7336 0.9889
H -5.4498 -0.1738 -2.6050
H -5.5969 1.3826 -1.7978
H -6.9958 0.3210 -1.9226
H -5.5325 -2.2053 -1.3233
H -7.0793 -1.7107 -0.6397
H -5.7416 -2.1351 0.4225
H -5.8804 1.4790 0.5865
H -5.9425 -0.0077 1.5254
H -7.2801 0.4166 0.4630
