23
 
N -0.6590 -1.2280 -0.0510
C 0.6525 -1.1494 0.2967
F 1.3625 -2.2852 0.5031
C 1.2265 0.0994 0.5651
C 0.4586 1.2557 0.3984
C -0.8726 1.1513 -0.0076
C -1.4268 -0.1156 -0.1970
Pt -1.5756 -3.1044 -0.2726
O -2.4704 -4.9360 -0.4889
C -1.6913 -5.6613 -1.3670
C -0.2657 -5.7177 -0.9100
C -2.3909 -6.9955 -1.6551
H 2.2487 0.1726 0.9131
H 0.8895 2.2298 0.5906
H -1.4737 2.0391 -0.1574
H -2.4607 -0.2183 -0.5001
H -1.7184 -5.0980 -2.3296
H -0.1947 -6.3456 -0.0030
H 0.0390 -4.6473 -0.6893
H 0.3266 -6.1934 -1.7290
H -2.4416 -7.6224 -0.7432
H -1.8881 -7.5493 -2.4746
H -3.4394 -6.7971 -1.9889
