28
 
P 1.0062 -0.0990 -0.0129
O -0.1851 1.0734 -0.2999
C 0.3301 2.2634 0.3148
O 0.5302 -1.2106 -1.2140
C 1.1319 -2.4512 -0.9220
O 0.6820 -0.0614 1.6691
C 1.3092 -1.1253 2.3147
Pt 3.4662 -0.0990 -0.0129
N 5.5662 -0.0990 -0.0129
C 6.2477 0.4548 1.0257
Cl 5.3665 1.0931 2.3984
C 7.6443 0.5383 0.9805
C 8.3220 0.0498 -0.1394
C 7.6028 -0.5186 -1.1918
C 6.2105 -0.5829 -1.1087
H 0.0092 3.1766 -0.2210
H 1.4536 2.3533 0.3443
H -0.0290 2.3264 1.3653
H 0.6716 -3.2304 -1.5634
H 0.9367 -2.8087 0.1069
H 2.2212 -2.4194 -1.1351
H 1.1764 -0.9651 3.4051
H 2.4005 -1.1394 2.1059
H 0.7921 -2.0788 2.1017
H 8.1976 0.9885 1.7946
H 9.4008 0.1185 -0.1962
H 8.1161 -0.8925 -2.0685
H 5.6376 -1.0008 -1.9258
