14
 
N -0.6515 -1.2980 -0.0299
C -1.3921 -0.1588 -0.1181
Cl -3.1264 -0.2822 -0.2895
C -0.7855 1.1082 -0.0634
C 0.6009 1.1963 0.0360
C 1.3565 0.0248 0.1174
C 0.7122 -1.2255 0.0942
Pt -1.5756 -3.1044 -0.2726
C -2.5141 -5.0254 -0.4994
O -3.0458 -6.1137 -0.6279
H -1.3742 2.0209 -0.1189
H 1.0882 2.1682 0.0436
H 2.4339 0.0894 0.1729
H 1.2994 -2.1331 0.1337
