31
 
P 0.9865 0.0490 -0.0861
O -0.1752 -0.7479 0.8583
C 0.3503 -2.0740 1.0206
O 0.4985 1.6514 0.2328
C 1.0962 2.4900 -0.7316
O 0.6476 -0.9605 -1.4283
C 1.2605 -0.4666 -2.5780
Pt 3.4465 0.0490 -0.0861
N 5.5465 0.0490 -0.0861
C 6.2158 1.0217 -0.7495
C 5.4213 2.0832 -1.4281
C 7.6189 0.9799 -0.8183
C 8.2997 -0.0876 -0.2221
C 7.5821 -1.0859 0.4386
C 6.1906 -0.9964 0.4979
H 0.0431 -2.5294 1.9810
H 1.4754 -2.1581 1.0321
H -0.0182 -2.7216 0.1957
H 0.6340 3.4963 -0.6691
H 0.9043 2.1834 -1.7772
H 2.1834 2.5932 -0.5397
H 1.1160 -1.2248 -3.3750
H 2.3531 -0.3380 -2.4277
H 0.7419 0.4351 -2.9504
H 4.3158 1.8336 -1.3047
H 5.6812 2.0875 -2.5096
H 5.6971 3.0760 -1.0033
H 8.1765 1.7426 -1.3470
H 9.3790 -0.1518 -0.2846
H 8.0956 -1.9266 0.8884
H 5.6160 -1.7702 0.9899
