29
 
P 1.0986 -0.0142 0.0092
O -0.0660 1.1601 -0.3669
C 0.4573 2.3717 0.1978
O 0.6117 -1.2047 -1.1100
C 1.2157 -2.4247 -0.7400
O 0.7611 0.1308 1.6825
C 1.3786 -0.8948 2.3951
Pt 3.5586 -0.0142 0.0092
N 5.6586 -0.0142 0.0092
C 5.8263 -0.9044 -1.1756
N 6.3659 1.1446 -0.2001
C 7.5687 1.0137 0.2461
C 7.6846 -0.1601 0.9770
C 6.4164 -0.7078 0.9796
H 0.1491 3.2661 -0.3760
H 1.5821 2.4509 0.2332
H 0.0881 2.4832 1.2403
H 0.7540 -3.2455 -1.3263
H 1.0269 -2.7202 0.3095
H 2.3040 -2.4058 -0.9582
H 1.2356 -0.6732 3.4729
H 2.4710 -0.9214 2.1959
H 0.8623 -1.8585 2.2342
H 6.2777 -0.3679 -2.0417
H 4.8698 -1.3748 -1.4660
H 6.5353 -1.7757 -1.0531
H 8.3537 1.7425 0.0986
H 8.5632 -0.5661 1.4643
H 6.1271 -1.6411 1.4505
