30
 
N -1.3977 -0.0862 -0.0415
C -0.5325 -0.9990 -0.6226
C 0.7994 -1.0906 -0.2112
C 1.3323 -0.1056 0.5257
C 2.7592 -0.1941 0.9670
C 0.5289 0.9811 0.8593
C -0.8631 0.9026 0.7148
Pt -3.4734 -0.2090 -0.2773
N -5.5569 -0.2994 -0.5035
C -6.3889 0.6181 0.1278
C -7.7815 0.4257 0.2369
O -8.5699 1.1787 1.0814
C -8.0099 2.1811 1.8774
C -8.3210 -0.5451 -0.5219
C -7.5243 -1.2860 -1.3832
C -6.1310 -1.2528 -1.2642
H -0.8786 -1.6698 -1.3505
H 1.4061 -1.8984 -0.4754
H 3.2143 -1.1120 0.6161
H 2.8041 -0.1817 2.0514
H 3.3155 0.6441 0.5836
H 0.9791 1.8449 1.2463
H -1.4870 1.6303 1.1555
H -5.9894 1.5057 0.5466
H -8.7589 2.6689 2.4824
H -7.5348 2.9267 1.2466
H -7.2546 1.7584 2.5337
H -9.3480 -0.7122 -0.4514
H -7.9771 -1.8843 -2.1152
H -5.5297 -1.9677 -1.7417
