23
 
N -1.3908 -0.1177 -0.0421
C -0.5830 -1.2091 -0.4423
C 0.7510 -1.2973 -0.0121
Cl 1.6726 -2.8016 -0.1891
C 1.3188 -0.2383 0.5281
C 0.5991 0.9487 0.6571
C -0.8017 0.9402 0.5151
Pt -3.4718 -0.1983 -0.2755
N -5.5581 -0.3029 -0.5155
C -6.4027 0.6998 -0.0101
C -7.7823 0.4819 0.0801
C -8.3247 -0.5374 -0.5542
Cl -10.0694 -0.8296 -0.4284
C -7.5143 -1.3786 -1.3200
C -6.1137 -1.3356 -1.1745
H -0.9703 -1.9633 -1.0488
H 2.3023 -0.2977 0.8491
H 1.0979 1.8350 0.8702
H -1.3727 1.7542 0.8146
H -6.0068 1.6122 0.3038
H -8.3856 1.1119 0.6387
H -7.9503 -2.0402 -1.9919
H -5.5162 -2.0941 -1.5609
