31
 
N -1.3847 -0.1133 -0.0544
C -0.7780 -0.4064 1.1856
C 0.5559 -0.0522 1.4129
C 1.3264 0.2996 0.3956
O 2.6591 0.6655 0.6140
C 3.1978 0.6639 1.9175
C 0.7802 0.2956 -0.8946
C -0.6110 0.2333 -1.0818
Pt -3.4775 -0.2100 -0.2770
N -5.5580 -0.2992 -0.5158
C -6.3653 -0.9118 0.4612
C -7.6979 -1.2319 0.1751
C -8.2878 -0.7099 -0.8885
O -9.6173 -1.0293 -1.1855
C -10.3435 -1.9119 -0.3592
C -7.5554 0.1642 -1.7024
C -6.1554 0.2378 -1.5907
H -1.3156 -0.8819 1.9461
H 0.9583 -0.0622 2.3673
H 4.2268 0.9686 1.8976
H 3.1311 -0.3262 2.3367
H 2.6407 1.3445 2.5398
H 1.4158 0.3515 -1.7160
H -1.0371 0.4513 -2.0041
H -5.9734 -1.1525 1.3979
H -8.2387 -1.8697 0.7867
H -11.3407 -2.0409 -0.7345
H -10.3917 -1.5157 0.6414
H -9.8507 -2.8696 -0.3318
H -8.0570 0.7481 -2.4020
H -5.5869 0.7097 -2.3227
