42
 
N -1.3784 -0.0985 -0.0529
C -0.6851 -1.0655 0.6823
C 0.6369 -0.8297 1.0657
C 1.3153 0.1588 0.5205
N 2.6924 0.4152 0.9295
C 3.5476 -0.6850 1.3884
C 3.2252 1.7808 0.8875
C 0.6959 0.9533 -0.4522
C -0.7002 0.9083 -0.6211
Pt -3.4706 -0.2026 -0.2760
P -5.9162 -0.3017 -0.5473
C -6.4982 -2.0143 -0.3202
C -6.7093 0.7760 0.7063
C -6.3685 0.2855 -2.2204
C -5.7108 -0.5963 -3.2651
C -7.8765 0.2260 -2.3824
C -5.8978 1.7194 -2.3998
H -1.1462 -1.9614 0.9446
H 1.0773 -1.4288 1.7717
H 3.0169 -1.6050 1.3619
H 3.8673 -0.5020 2.3962
H 4.4071 -0.7657 0.7513
H 2.4766 2.4557 0.5352
H 4.0697 1.8200 0.2262
H 3.5300 2.0836 1.8710
H 1.2652 1.5789 -1.0474
H -1.1928 1.6402 -1.1693
H -6.2306 -2.3590 0.6606
H -6.0302 -2.6485 -1.0544
H -7.5596 -2.0585 -0.4389
H -6.4483 0.4385 1.6886
H -7.7772 0.7391 0.5891
H -6.3755 1.7883 0.5759
H -6.0422 -1.6091 -3.1401
H -4.6447 -0.5543 -3.1527
H -5.9783 -0.2531 -4.2464
H -8.2112 -0.7855 -2.2560
H -8.1474 0.5704 -3.3622
H -8.3434 0.8500 -1.6450
H -4.8319 1.7650 -2.2858
H -6.3615 2.3457 -1.6623
H -6.1655 2.0661 -3.3795
