23
 
N -0.6590 -1.2280 -0.0510
C -1.4254 -0.1130 0.0098
O -2.7752 -0.2233 -0.0180
C -3.4371 -1.4335 -0.1569
C -0.8015 1.1424 0.0809
C 0.5992 1.2135 0.0727
C 1.3562 0.0423 0.0054
C 0.6980 -1.1835 -0.0524
Pt -1.5756 -3.1044 -0.2726
C -2.5141 -5.0254 -0.4994
N -3.8418 -5.1873 -0.6526
C -3.9959 -6.5189 -0.7515
C -2.7588 -7.1140 -0.6465
O -1.8642 -6.1665 -0.4966
H -4.5286 -1.2518 -0.1329
H -3.1803 -2.1254 0.6614
H -3.1732 -1.9201 -1.1125
H -1.3855 2.0519 0.1245
H 1.1015 2.1717 0.1091
H 2.4386 0.0802 -0.0147
H 1.2609 -2.1054 -0.1256
H -4.9448 -7.0199 -0.8887
H -2.5440 -8.1737 -0.6794
