45
 
N 1.1430 -0.6970 0.0890
C 0.0090 -1.4237 0.0696
C 0.1498 -2.9056 0.1598
C -1.2298 -0.7688 -0.0181
C -1.2558 0.6320 -0.0707
C -0.0589 1.3531 -0.0805
C 1.1536 0.6571 -0.0141
C 2.4692 1.3670 -0.0616
Pt 2.9539 -1.7051 0.4273
P 5.0752 -2.8860 0.8235
C 5.2965 -3.9959 2.2447
C 5.0750 -4.0961 -0.5065
C 4.0088 -4.1444 -1.4081
C 4.0503 -5.0240 -2.4967
C 5.1595 -5.8542 -2.6921
C 6.2347 -5.8019 -1.8030
C 6.1963 -4.9250 -0.7141
C 6.3591 -1.6503 0.9316
C 6.0563 -0.2942 0.7940
C 7.1016 0.6468 0.7782
C 8.4351 0.2259 0.8972
C 8.7289 -1.1311 1.0403
C 7.6946 -2.0653 1.0569
H 1.2428 -3.1701 0.2736
H -0.2525 -3.3607 -0.7708
H -0.4227 -3.2846 1.0306
H -2.1578 -1.3250 -0.0220
H -2.1990 1.1622 -0.1105
H -0.0761 2.4354 -0.1339
H 2.3367 2.4675 -0.1453
H 3.0242 1.0210 -0.9609
H 3.0654 1.1279 0.8393
H 4.4661 -4.7380 2.2323
H 5.1315 -3.3746 3.1558
H 6.2750 -4.4958 2.3013
H 3.1602 -3.4863 -1.2791
H 3.2276 -5.0532 -3.1972
H 5.1912 -6.5295 -3.5380
H 7.1021 -6.4317 -1.9659
H 7.0528 -4.8850 -0.0545
H 5.0156 0.0056 0.6706
H 6.8884 1.7001 0.6569
H 9.2446 0.9451 0.8698
H 9.7570 -1.4643 1.1231
H 7.9423 -3.1137 1.1473
