49
 
P 1.0023 0.0842 -0.0538
O -0.1509 -0.4374 1.0964
C 0.4217 -1.6586 1.6095
C -0.2210 -2.1802 2.8839
O 0.4207 1.6482 -0.4076
C 0.6319 2.5161 0.6714
C 0.0944 3.8848 0.2632
O 0.7161 -1.2769 -1.0505
C 1.2069 -1.0487 -2.3365
C 0.7844 -2.2176 -3.2208
Pt 3.4623 0.0842 -0.0538
C 5.6123 0.0842 -0.0538
N 6.3018 -0.9803 -0.1571
C 5.7387 -2.3157 -0.1909
C 4.1962 -2.3158 -0.0876
C 7.7181 -0.6729 -0.1554
C 7.7535 0.8575 -0.3239
N 6.4106 1.2392 0.0181
C 5.9860 2.5900 0.3281
C 4.4979 2.6689 0.6732
H 1.5218 -1.5907 1.8342
H 0.2598 -2.4722 0.8729
H 0.0622 -1.5710 3.7662
H 0.1501 -3.2201 3.0607
H -1.3187 -2.2226 2.7615
H 1.7144 2.6199 0.8951
H 0.0694 2.1807 1.5701
H 0.6357 4.2568 -0.6343
H 0.2189 4.6173 1.0869
H -0.9863 3.8079 0.0117
H 2.3093 -1.0223 -2.3115
H 0.7981 -0.1136 -2.7761
H 1.1490 -3.1796 -2.7967
H 1.2140 -2.0890 -4.2348
H -0.3237 -2.2660 -3.3019
H 6.1606 -2.8996 0.6558
H 6.0483 -2.8074 -1.1387
H 3.8402 -1.8261 0.8334
H 3.8360 -3.3618 -0.1140
H 3.7641 -1.7895 -0.9404
H 8.2950 -1.1706 -0.9633
H 8.1199 -0.9615 0.8417
H 7.8883 1.1203 -1.3984
H 8.5465 1.3331 0.2905
H 6.2097 3.2629 -0.5253
H 6.5691 2.9401 1.2107
H 3.8883 2.4017 -0.2065
H 4.2540 3.7137 0.9654
H 4.2670 2.0091 1.5371
