28
 
N -0.6590 -1.2280 -0.0510
C -1.4210 -0.1139 0.0597
O -2.7701 -0.2221 0.0510
C -3.4331 -1.4286 -0.1154
C -0.7938 1.1424 0.1217
C 0.6055 1.2151 0.0660
C 1.3586 0.0456 -0.0442
C 0.6979 -1.1795 -0.1036
Pt -1.5756 -3.1044 -0.2726
N -2.4923 -4.9807 -0.4941
C -2.2207 -4.8947 -1.9411
N -1.8747 -6.1744 -0.2126
C -2.7489 -7.1252 -0.2231
C -4.0312 -6.6058 -0.4137
C -3.8769 -5.2283 -0.4558
H -4.5232 -1.2361 -0.1087
H -3.1897 -2.1324 0.6964
H -3.1602 -1.9037 -1.0727
H -1.3731 2.0538 0.1872
H 1.1095 2.1734 0.0954
H 2.4400 0.0857 -0.0981
H 1.2602 -2.0987 -0.2081
H -1.1320 -4.7281 -2.1052
H -2.7249 -3.9929 -2.3629
H -2.5391 -5.7753 -2.5501
H -2.4992 -8.1722 -0.1174
H -4.9609 -7.1505 -0.5248
H -4.6589 -4.4980 -0.6275
