25
 
N 1.1430 -0.6970 0.0890
C 0.0068 -1.4191 0.1047
C 0.1412 -2.8954 0.2724
C -1.2292 -0.7577 0.0279
C -1.2463 0.6413 -0.0746
C -0.0441 1.3537 -0.1336
C 1.1637 0.6509 -0.0556
C 2.4910 1.3334 -0.1776
Pt 2.9539 -1.7051 0.4273
C 4.8079 -2.7372 0.7736
N 4.9071 -4.0715 0.9232
C 6.2199 -4.2752 1.1329
C 6.8703 -3.0637 1.0651
O 5.9698 -2.1322 0.8650
H 1.2346 -3.1610 0.3768
H -0.2907 -3.4016 -0.6157
H -0.4036 -3.2199 1.1837
H -2.1607 -1.3065 0.0739
H -2.1868 1.1760 -0.1155
H -0.0542 2.4322 -0.2379
H 2.3740 2.4321 -0.3018
H 2.9987 0.9454 -1.0887
H 3.1346 1.1027 0.6947
H 6.6724 -5.2400 1.3186
H 7.9338 -2.8904 1.1615
