85
 
C 0.9010 -0.6430 -0.0020
N -0.3597 -1.1303 -0.1595
C -0.9246 -2.5122 -0.3637
C -2.3618 -2.7457 -0.0883
C -3.3471 -1.7192 0.5598
C -4.8186 -2.1100 0.7845
C -2.8186 -1.2735 1.9383
C -2.9257 -4.0047 -0.3650
C -2.1951 -5.0466 -0.8580
C -0.8546 -4.9148 -1.0463
C -0.1500 -3.7090 -0.8054
C 1.3822 -3.8430 -1.0311
C 1.9112 -5.2470 -1.5045
C 1.8773 -2.9165 -2.1309
C -1.0625 0.0245 -0.2857
C -0.3135 1.1329 -0.0044
N 0.9686 0.7743 0.1241
C 2.0945 1.7937 0.3114
C 2.0495 2.9925 1.1880
C 0.8778 3.5133 2.0439
C 1.2415 3.7271 3.5323
C 0.4316 4.8886 1.4864
C 3.1757 3.8770 1.2447
C 4.3117 3.7000 0.5060
C 4.3609 2.6742 -0.3732
C 3.2916 1.7712 -0.5151
C 3.4490 0.9681 -1.7567
C 4.2448 -0.2684 -1.4360
C 2.1339 0.8769 -2.5083
Pt 2.6584 -1.8814 -0.0135
N 4.3750 -3.0911 -0.0247
C 4.4936 -4.4215 0.1542
N 5.7788 -4.8356 0.0439
C 6.2764 -6.1900 0.1081
C 5.3886 -7.2814 0.2045
C 5.8748 -8.5836 0.3236
C 7.2493 -8.8202 0.3362
C 8.1413 -7.7566 0.1993
C 7.6624 -6.4517 0.0790
C 6.5060 -3.7139 -0.1112
C 5.6491 -2.6530 -0.1593
H -3.5359 -0.9040 -0.1262
H -4.9287 -2.8876 1.5663
H -5.3115 -2.4137 -0.1623
H -5.3629 -1.1988 1.1326
H -2.6870 -2.1568 2.5994
H -3.5218 -0.5675 2.4294
H -1.8541 -0.7543 1.8805
H -3.9648 -4.2235 -0.1969
H -2.6662 -5.9992 -1.0692
H -0.4005 -5.8299 -1.3859
H 1.8375 -3.6496 -0.0179
H 1.4429 -5.5597 -2.4636
H 1.7579 -6.0280 -0.7284
H 2.9943 -5.2393 -1.7546
H 1.4046 -3.1591 -3.0957
H 2.9791 -3.0055 -2.2327
H 1.6571 -1.8941 -1.9106
H -2.0512 0.1567 -0.6013
H -0.7159 2.1340 0.0086
H 0.0135 2.8315 2.0023
H 2.1179 4.3975 3.6689
H 1.4513 2.7658 4.0352
H 0.4002 4.2330 4.0574
H 1.2283 5.6594 1.5915
H -0.4426 5.2953 2.0361
H 0.1706 4.7920 0.4140
H 3.1985 4.7707 1.8495
H 5.1369 4.4041 0.5529
H 5.2432 2.6229 -1.0066
H 4.0322 1.5647 -2.5116
H 4.1855 -0.4803 -0.3696
H 5.3333 -0.0334 -1.6634
H 3.9067 -1.1444 -1.9479
H 1.5490 0.1086 -2.0904
H 2.2451 0.6156 -3.5714
H 1.5447 1.8199 -2.3960
H 3.6670 -5.0770 0.3335
H 4.3178 -7.1448 0.1974
H 5.1808 -9.4081 0.4175
H 7.6227 -9.8281 0.4492
H 9.2077 -7.9385 0.1984
H 8.3873 -5.6574 -0.0188
H 7.5827 -3.6401 -0.1771
H 5.9891 -1.6372 -0.2327
