48
 
P 0.9994 0.0775 0.0632
C 0.1021 -0.6591 1.4658
C 0.4895 1.7533 0.4562
C 1.4365 2.7666 0.5886
C 1.0245 4.0711 0.8824
C -0.3353 4.3664 1.0386
C -1.2919 3.3664 0.8595
C -0.8845 2.0667 0.5553
C 0.6001 -0.8640 -1.3867
C -0.7374 -0.9731 -1.8154
C -1.0507 -1.7092 -2.9589
C -0.0298 -2.3397 -3.6730
C 1.3110 -2.2056 -3.2590
C 1.6408 -1.4488 -2.1110
Pt 3.4594 0.0775 0.0632
P 5.9194 0.0775 0.0632
N 6.7818 -1.0013 1.1830
C 6.4373 -2.4293 1.0024
C 8.2090 -0.7685 1.2910
O 6.5118 -0.6169 -1.3760
C 6.1657 0.2467 -2.4364
O 6.2042 1.4214 1.0755
C 5.8618 2.5946 0.3714
H -0.9960 -0.6287 1.3821
H 0.4500 -0.1725 2.4051
H 0.4325 -1.7199 1.5275
H 2.4859 2.5440 0.4521
H 1.7610 4.8530 0.9914
H -0.6486 5.3716 1.2868
H -2.3471 3.5972 0.9570
H -1.6473 1.3119 0.4038
H -1.5389 -0.4818 -1.2756
H -2.0831 -1.7919 -3.2888
H -0.2847 -2.9230 -4.5522
H 2.0822 -2.6913 -3.8387
H 2.6875 -1.2869 -1.7437
H 5.3422 -2.5799 0.8575
H 6.7018 -2.9991 1.9224
H 6.9840 -2.8889 0.1513
H 8.3794 0.2790 1.6060
H 8.7089 -0.9830 0.3279
H 8.6173 -1.4197 2.0958
H 6.7792 -0.0140 -3.3245
H 6.3928 1.3208 -2.2351
H 5.0984 0.1085 -2.7112
H 5.6360 3.3847 1.1165
H 4.9373 2.4872 -0.2394
H 6.7072 2.9631 -0.2531
