68
 
P 0.9520 0.0236 0.0845
C 0.1166 -1.1701 -1.0524
C 0.6159 -0.9305 -2.4864
C 0.2686 -2.2316 -3.1860
C 0.7307 -3.2823 -2.1915
C 0.5796 -2.6242 -0.8089
C 0.4947 -0.4550 1.8194
C 0.9505 -1.8024 2.3206
C 0.7766 -1.6592 3.8287
C 1.3402 -0.2805 4.1204
C 1.0629 0.5318 2.8556
C 0.2794 1.6341 -0.5208
C -1.2452 1.6258 -0.3667
C -1.6063 3.0905 -0.4584
C -0.5626 3.7496 0.4293
C 0.6944 2.8611 0.3195
Pt 3.4120 0.0236 0.0845
C 5.5620 0.0236 0.0845
N 6.2510 0.6195 -0.8053
C 5.6753 1.2780 -1.9499
C 7.6668 0.4855 -0.5488
C 7.7206 -0.0911 0.8739
N 6.3757 -0.5665 1.0814
C 5.9662 -1.4642 2.1169
C 6.9000 -1.9872 3.0388
C 6.5093 -2.9263 3.9984
C 5.1884 -3.3623 4.0508
C 4.2552 -2.8508 3.1532
C 4.6384 -1.8982 2.1933
H -0.9932 -1.1446 -1.0398
H 1.7272 -0.8228 -2.4905
H 0.1693 -0.0419 -2.9795
H 0.7300 -2.3535 -4.1927
H -0.8351 -2.2886 -3.2826
H 1.8200 -3.4558 -2.3592
H 0.2112 -4.2574 -2.3106
H 1.5974 -2.6437 -0.3537
H -0.1240 -3.1709 -0.1512
H -0.6135 -0.4540 1.9370
H 1.9950 -1.9057 2.0575
H 0.3834 -2.6632 1.9247
H 1.2580 -2.4583 4.4324
H -0.3119 -1.6473 4.0503
H 2.4462 -0.3720 4.2122
H 0.9502 0.1738 5.0580
H 2.0432 0.9403 2.5195
H 0.3440 1.3593 3.0426
H 0.5316 1.8510 -1.5820
H -1.5218 1.2689 0.6500
H -1.7702 1.0053 -1.1229
H -2.6537 3.3096 -0.1477
H -1.4548 3.4211 -1.5056
H -0.9325 3.6743 1.4804
H -0.4093 4.8250 0.2011
H 0.9447 2.5951 1.3544
H 1.5930 3.3702 -0.0846
H 4.5528 1.2094 -1.9106
H 6.0518 0.7927 -2.8768
H 5.9957 2.3424 -1.9567
H 8.2311 1.4397 -0.6053
H 8.0678 -0.2498 -1.2821
H 7.8855 0.7172 1.6230
H 8.5076 -0.8691 0.9531
H 7.9378 -1.6908 3.0162
H 7.2343 -3.3289 4.6937
H 4.8875 -4.1021 4.7824
H 3.2437 -3.2198 3.2114
H 3.9303 -1.5124 1.4890
