37
 
C 1.0724 0.0347 0.3519
O -0.0580 0.0039 0.3748
Pt 3.1324 0.0425 0.3151
P 5.5382 0.0280 0.0862
C 6.2490 -0.2169 -1.5662
C 5.9451 0.7108 -2.5891
C 6.2443 0.4135 -3.9277
C 6.8787 -0.7854 -4.2523
C 7.2283 -1.6818 -3.2425
C 6.8989 -1.4095 -1.9126
C 6.0579 1.6742 0.6096
C 5.0951 2.6351 0.9361
C 5.5091 3.9218 1.3308
C 6.8718 4.2246 1.4634
C 7.8300 3.2474 1.1999
C 7.4298 1.9865 0.7481
C 6.0221 -1.4203 1.0874
C 7.3872 -1.7181 1.3096
C 7.7481 -2.8376 2.0580
C 6.7630 -3.6689 2.5784
C 5.4166 -3.3397 2.3811
O 4.5487 -4.0567 2.8466
N 5.0721 -2.2145 1.6590
H 5.4263 1.6377 -2.3723
H 5.9591 1.0927 -4.7232
H 7.0843 -1.0291 -5.2877
H 7.7163 -2.6127 -3.4943
H 7.1015 -2.1682 -1.1809
H 4.0320 2.3684 0.8681
H 4.7793 4.6896 1.5407
H 7.1897 5.2139 1.7734
H 8.8839 3.4698 1.3356
H 8.2041 1.2665 0.5221
H 8.1853 -1.1116 0.9057
H 8.7956 -3.0655 2.2236
H 7.0508 -4.5554 3.1341
H 4.0625 -1.9661 1.5365
