67
 
N 1.0529 0.0827 -0.0191
C 1.0790 -0.6204 1.3051
C 0.4850 -0.7415 -1.0796
C 0.0884 1.1478 0.3195
C 0.2202 2.4838 -0.0801
C -0.8285 3.4014 0.1753
C -1.9952 3.0157 0.8556
C -2.1377 1.7166 1.2967
C -1.1455 0.8030 1.0127
Pt 3.1529 0.0827 -0.0191
P 5.6129 0.0827 -0.0191
C 6.3174 0.4648 1.7161
C 5.8329 -0.6441 2.6932
C 7.8452 0.5703 1.8056
C 5.7115 1.7520 2.3112
C 6.1161 -1.6212 -0.7069
C 5.5517 -1.8362 -2.1305
C 7.6637 -1.7609 -0.7455
C 5.5628 -2.8034 0.1147
C 6.0440 1.5585 -1.0012
C 5.6483 2.8572 -0.7035
C 5.9113 3.9037 -1.5898
C 6.5333 3.6862 -2.8495
N 6.6302 4.7324 -3.8537
C 6.1413 6.0872 -3.6295
C 7.0904 4.4944 -5.2225
C 6.9912 2.3790 -3.1012
C 6.7644 1.3588 -2.1920
H 0.5812 -1.6100 1.3122
H 2.1327 -0.7407 1.6301
H 0.7419 -0.0574 2.2197
H -0.6311 -0.7847 -1.0295
H 0.8618 -1.7828 -1.0405
H 0.7366 -0.2907 -2.0607
H 1.0964 2.8097 -0.6172
H -0.7548 4.4212 -0.1652
H -2.8035 3.7112 1.0407
H -3.0223 1.3937 1.8414
H -1.3494 -0.2043 1.3674
H 6.3573 -1.5928 2.5526
H 4.7304 -0.7959 2.6173
H 6.0603 -0.4016 3.7537
H 8.3496 -0.3884 1.6395
H 8.1450 0.8617 2.8365
H 8.2235 1.3241 1.0891
H 4.6015 1.7507 2.2102
H 6.1729 2.6593 1.8930
H 5.9403 1.8258 3.4000
H 5.9026 -1.1430 -2.9034
H 4.4440 -1.7905 -2.1143
H 5.8650 -2.8388 -2.5041
H 8.1791 -0.9081 -1.2241
H 7.9820 -2.6838 -1.2714
H 8.0818 -1.8696 0.2654
H 4.4611 -2.7318 0.2129
H 6.0195 -2.9182 1.0995
H 5.8178 -3.7666 -0.3810
H 5.0906 3.0909 0.1796
H 5.5506 4.8532 -1.2578
H 5.7545 6.2955 -2.6268
H 5.3029 6.2920 -4.3288
H 6.9589 6.8136 -3.8045
H 7.4113 3.4706 -5.4555
H 7.9417 5.1645 -5.4599
H 6.2592 4.7086 -5.9298
H 7.4999 2.0765 -4.0012
H 7.1350 0.4068 -2.4913
