51
 
P 0.9547 -0.0319 0.0833
C 0.2948 -1.3280 1.2399
C 0.7011 -2.7557 0.8188
C 0.6333 -3.5469 2.1113
C 1.3328 -2.6375 3.0960
C 1.0510 -1.2115 2.5901
C 0.4282 1.6272 0.6944
C 0.8913 2.0764 2.0649
C 0.5293 3.5598 2.0174
C 1.0121 4.0044 0.6446
C 0.9135 2.7532 -0.2303
C 0.4388 -0.4935 -1.6432
C 0.9015 0.5206 -2.6917
C 0.6451 -0.2099 -3.9945
C 1.1863 -1.5967 -3.6966
C 0.9822 -1.8134 -2.1861
Pt 3.4147 -0.0319 0.0833
C 5.5647 -0.0319 0.0833
N 6.3119 0.9444 0.6320
C 7.5768 0.5496 0.4032
C 7.5487 -0.6484 -0.2748
O 6.2937 -0.9809 -0.4576
H -0.8055 -1.3150 1.3989
H 1.7602 -2.7682 0.4719
H 0.0413 -3.2159 0.0592
H 1.0935 -4.5610 2.0521
H -0.4302 -3.6471 2.4096
H 2.4307 -2.8205 3.0000
H 1.0462 -2.8350 4.1504
H 2.0643 -0.7761 2.4166
H 0.5376 -0.5739 3.3312
H -0.6880 1.6660 0.6955
H 1.9905 1.9482 2.1491
H 0.3640 1.5653 2.8941
H 0.9387 4.1726 2.8479
H -0.5814 3.6480 2.0312
H 2.0895 4.2719 0.7131
H 0.4541 4.8841 0.2532
H 1.9400 2.5264 -0.5991
H 0.2298 2.9072 -1.0887
H -0.6769 -0.5224 -1.7074
H 1.9925 0.6943 -2.5789
H 0.3583 1.4844 -2.6780
H 1.1210 0.2700 -4.8796
H -0.4529 -0.2686 -4.1676
H 2.2847 -1.5542 -3.8639
H 0.7629 -2.3870 -4.3529
H 1.9820 -2.0093 -1.7440
H 0.2759 -2.6411 -1.9829
H 8.4579 1.0976 0.7088
H 8.4002 -1.2272 -0.6068
