78
 
P 1.0554 0.0014 -0.0832
C 0.2268 -1.3812 -0.9992
C 0.7068 -1.4202 -2.4595
C 0.4009 -2.8302 -2.9029
C 0.8885 -3.6635 -1.7374
C 0.7188 -2.7637 -0.4993
C 0.5969 -0.1643 1.6975
C 1.1119 -1.3909 2.4233
C 0.8895 -0.9994 3.8770
C 1.3785 0.4389 3.9415
C 1.1459 0.9999 2.5362
C 0.5604 1.5477 -0.9512
C 1.1278 2.7716 -0.2454
C 0.9460 3.8604 -1.2766
C 1.3741 3.1820 -2.5676
C 1.0483 1.6966 -2.3891
Pt 3.5154 0.0014 -0.0832
P 5.9754 0.0014 -0.0832
C 6.6136 1.0785 -1.4051
C 6.8909 2.4373 -1.1520
C 7.1003 3.3334 -2.2082
C 7.0358 2.8913 -3.5299
C 6.7696 1.5482 -3.7997
C 6.5459 0.6488 -2.7468
C 6.4482 0.8103 1.4577
C 5.4956 1.2458 2.3864
C 5.9151 1.8790 3.5698
C 7.2801 2.0572 3.8326
C 8.2303 1.5853 2.9271
C 7.8169 0.9644 1.7469
C 6.5160 -1.6750 -0.4736
C 5.6049 -2.7358 -0.5834
C 6.0749 -4.0461 -0.7651
C 7.4489 -4.2990 -0.8465
C 8.3572 -3.2434 -0.7571
C 7.8937 -1.9385 -0.5689
H -0.8832 -1.3550 -0.9818
H 1.8125 -1.2714 -2.5077
H 0.1936 -0.7077 -3.1225
H 0.8703 -3.1076 -3.8750
H -0.7005 -2.9283 -2.9856
H 1.9812 -3.8405 -1.8796
H 0.3841 -4.6512 -1.6778
H 1.7381 -2.6889 -0.0503
H 0.0278 -3.1981 0.2479
H -0.5145 -0.1464 1.8059
H 2.1960 -1.5115 2.2183
H 0.5538 -2.3149 2.1803
H 1.3831 -1.6684 4.6135
H -0.2065 -0.9989 4.0724
H 2.4780 0.4333 4.1120
H 0.8955 1.0197 4.7579
H 2.1375 1.3122 2.1439
H 0.4610 1.8734 2.5398
H -0.5525 1.6553 -0.9506
H 2.2109 2.6166 -0.0570
H 0.6081 3.0267 0.7005
H 1.5227 4.7842 -1.0511
H -0.1361 4.1079 -1.3358
H 2.4803 3.2527 -2.6447
H 0.9169 3.6461 -3.4673
H 1.9900 1.1240 -2.5330
H 0.2600 1.3823 -3.1019
H 6.8841 2.8345 -0.1485
H 7.2737 4.3826 -2.0036
H 7.1666 3.5952 -4.3443
H 6.6970 1.2166 -4.8289
H 6.2759 -0.3704 -2.9899
H 4.4411 1.0910 2.1898
H 5.1880 2.2340 4.2878
H 7.6055 2.5526 4.7399
H 9.2876 1.7029 3.1362
H 8.5702 0.6050 1.0596
H 4.5410 -2.5597 -0.4959
H 5.3778 -4.8717 -0.8256
H 7.8120 -5.3123 -0.9711
H 9.4216 -3.4379 -0.8158
H 8.6157 -1.1388 -0.4775
