15
 
C 0.9010 -0.6430 -0.0020
N 0.9304 0.6974 -0.1252
C -0.3647 1.0550 -0.0702
C -1.1274 -0.0777 0.1052
O -0.3194 -1.1100 0.1299
Pt 2.6584 -1.8814 -0.0135
C 4.4159 -3.1199 -0.0250
N 5.6687 -2.6379 -0.1292
C 6.4410 -3.7384 -0.1048
C 5.6295 -4.8435 0.0220
O 4.3859 -4.4299 0.0637
H -0.7271 2.0711 -0.1495
H -2.2034 -0.1273 0.2054
H 7.5205 -3.7351 -0.1743
H 5.9435 -5.8772 0.0772
