57
 
P 0.9641 -0.0660 0.0660
O -0.0504 0.3478 -1.2466
C 0.4078 1.6346 -1.7566
C 1.9459 1.8409 -2.0206
C -0.3034 1.9892 -3.0576
O 0.4389 -1.6277 0.5130
C 0.8675 -2.6428 -0.3636
C 2.3906 -2.6475 -0.6195
C 0.4707 -3.9728 0.2974
O 0.6093 1.3673 0.9453
C 1.0464 1.2735 2.2761
C 2.5646 1.3314 2.3074
C 0.4798 2.4545 3.0673
Pt 3.4241 -0.0660 0.0660
N 5.5241 -0.0660 0.0660
C 6.1489 -0.0169 -1.1433
C 7.5447 -0.0093 -1.2254
C 8.3011 -0.0228 -0.0568
C 7.6590 -0.0477 1.1810
C 8.3967 -0.0139 2.3669
C 7.7490 -0.0214 3.5994
C 6.3480 -0.1168 3.6762
C 5.6094 -0.1520 4.9790
O 4.3891 -0.2380 4.9746
C 6.2811 -0.0871 6.3224
C 5.6247 -0.1773 2.4740
C 6.2500 -0.0991 1.2274
H 0.0868 2.4183 -1.0426
H 2.3440 1.1795 -2.8203
H 2.5790 1.7306 -1.1172
H 2.1269 2.8923 -2.3474
H 0.0455 1.3506 -3.8970
H -0.0774 3.0514 -3.3153
H -1.3968 1.8907 -2.9289
H 0.3096 -2.5622 -1.3208
H 2.9426 -2.7036 0.3429
H 2.7115 -1.7496 -1.1813
H 2.6581 -3.5250 -1.2444
H 0.9983 -4.1029 1.2695
H 0.7175 -4.8336 -0.3580
H -0.6224 -3.9932 0.5022
H 0.6645 0.3461 2.7697
H 2.9733 2.1739 1.7225
H 2.8740 0.4154 1.8709
H 2.9228 1.3494 3.3576
H 0.8151 3.4132 2.6187
H 0.8319 2.4103 4.1218
H -0.6311 2.4290 3.0750
H 5.5589 0.0138 -2.0489
H 8.0405 0.0192 -2.1863
H 9.3829 -0.0076 -0.1143
H 9.4769 0.0386 2.3451
H 8.3743 0.0379 4.4697
H 7.3759 0.0133 6.2819
H 6.0543 -1.0194 6.8774
H 5.8943 0.7859 6.8877
H 4.5797 -0.2929 2.5259
