56
 
P 0.9847 -0.0686 -0.0711
O 0.0312 -0.3667 -1.4617
C 0.4794 0.5651 -2.4869
C 2.0065 0.5973 -2.8309
C -0.2630 0.3148 -3.7956
O 0.5498 -1.2597 1.0762
C 0.8483 -2.5708 0.7162
C 2.3516 -2.7502 0.4948
C 0.4054 -3.4443 1.9048
O 0.4339 1.5379 0.1940
C -1.0049 1.5639 0.2768
C -1.6027 0.7740 1.4625
C -1.4633 3.0117 0.4038
Pt 3.4447 -0.0686 -0.0711
N 5.5447 -0.0686 -0.0711
C 6.3032 -0.0821 0.9661
C 5.8267 -0.1470 2.3815
C 4.4626 -0.2892 2.7018
C 4.0411 -0.3742 4.0305
C 4.9730 -0.3121 5.0648
C 6.3279 -0.1705 4.7702
C 6.7533 -0.0914 3.4429
N 7.6682 -0.0697 0.6052
C 7.7445 -0.3252 -0.8019
C 6.3215 -0.0227 -1.2836
H 0.1970 1.5967 -2.1927
H 2.3746 -0.3700 -3.2320
H 2.6446 0.9073 -1.9795
H 2.1943 1.3745 -3.6095
H 0.0458 -0.6507 -4.2491
H -0.0217 1.1308 -4.5172
H -1.3555 0.3228 -3.6211
H 0.2492 -2.8698 -0.1711
H 2.8923 -2.4235 1.4060
H 2.6991 -2.1591 -0.3729
H 2.5689 -3.8160 0.2971
H 0.9612 -3.1598 2.8281
H 0.5904 -4.5174 1.6974
H -0.6791 -3.3109 2.1198
H -1.4844 1.2007 -0.6587
H -1.1420 1.0946 2.4188
H -1.5062 -0.3174 1.3402
H -2.7012 0.9310 1.5129
H -1.0720 3.4543 1.3424
H -2.5765 3.0526 0.4230
H -1.1138 3.6046 -0.4658
H 3.7087 -0.3477 1.9485
H 2.9887 -0.4907 4.2558
H 4.6462 -0.3753 6.0937
H 7.0547 -0.1240 5.5700
H 7.8118 0.0147 3.2683
H 8.4706 -0.1587 1.2417
H 7.9543 -1.4151 -0.8952
H 8.5218 0.2593 -1.3351
H 5.9998 -0.7686 -2.0400
H 6.2401 1.0097 -1.6877
