47
 
P 1.0680 0.0244 0.0691
C 0.2953 1.6460 -0.0265
C -1.0690 1.9199 -0.1720
C -1.5091 3.2519 -0.2039
C -0.5994 4.3078 -0.0658
C 0.7562 4.0391 0.1058
C 1.1992 2.7182 0.1196
C 0.6982 -0.6215 -1.5834
C 1.7378 -1.0280 -2.4235
C 1.4696 -1.6369 -3.6545
C 0.1509 -1.8566 -4.0568
C -0.8997 -1.4889 -3.2163
C -0.6300 -0.8853 -1.9824
C 0.6072 -0.8159 1.5797
C 1.6112 -1.2498 2.4484
C 1.2392 -2.0093 3.5751
C -0.1072 -2.3270 3.8064
C -1.0783 -1.8697 2.9146
O -2.2528 -2.1488 3.0940
N -0.7042 -1.1225 1.8236
Pt 3.5280 0.0244 0.0691
N 5.6280 0.0244 0.0691
C 5.6148 -0.1275 -1.4000
N 6.4811 1.1062 0.0874
C 7.6525 0.7401 0.4895
C 7.5909 -0.5310 1.0320
C 6.2809 -0.9248 0.8779
H -1.7941 1.1336 -0.2564
H -2.5599 3.4689 -0.3281
H -0.9425 5.3342 -0.0827
H 1.4649 4.8506 0.2313
H 2.2597 2.5326 0.2644
H 2.7531 -0.9110 -2.1107
H 2.2855 -1.9556 -4.2890
H -0.0557 -2.3320 -5.0077
H -1.9224 -1.6910 -3.5137
H -1.4672 -0.6677 -1.3418
H 2.6647 -1.0077 2.2050
H 1.9872 -2.3751 4.2648
H -0.3943 -2.9320 4.6621
H -1.4452 -0.8144 1.1541
H 4.5526 0.0494 -1.7167
H 6.0369 -1.0968 -1.7312
H 6.1381 0.6533 -2.0270
H 8.5369 1.3631 0.4466
H 8.3747 -1.0688 1.5505
H 5.8319 -1.8253 1.2736
