35
 
N -0.0000 1.1190 -0.0020
C 0.9455 1.1282 1.1135
N -1.0530 0.3492 0.4244
C -0.9235 -0.8518 -0.0242
C 0.1058 -0.9067 -0.9584
C 0.6138 0.3774 -1.0272
Pt -0.0000 3.2190 -0.0116
N -0.0000 5.3190 -0.0213
C -1.2078 5.9414 0.0567
C -1.2903 7.3346 0.0600
C -0.1198 8.0878 0.0192
C 1.1194 7.4402 -0.0252
C 2.3064 8.1721 -0.0134
C 3.5350 7.5154 -0.0290
C 3.6067 6.1054 -0.0737
C 4.9144 5.3758 -0.0909
O 4.9099 4.1554 -0.1614
C 6.2629 6.0496 -0.0268
C 2.3976 5.3708 -0.0961
C 1.1622 6.0288 -0.0630
H 1.2430 0.1114 1.4602
H 0.4690 1.6549 1.9744
H 1.8550 1.7101 0.8507
H -1.5517 -1.6793 0.2787
H 0.4242 -1.7589 -1.5438
H 1.4050 0.7294 -1.6760
H -2.1119 5.3492 0.0980
H -2.2531 7.8269 0.1027
H -0.1808 9.1696 0.0368
H 2.2863 9.2549 0.0255
H 4.4085 8.1423 -0.0034
H 6.2308 7.1474 0.0625
H 6.8340 5.8087 -0.9469
H 6.8209 5.6701 0.8544
H 2.4078 4.2865 -0.1206
