75
 
P 1.0629 -0.0397 0.0669
C 0.2752 1.2455 1.0536
C -1.1019 1.4515 1.1726
C -1.5786 2.5187 1.9499
C -0.6876 3.3772 2.6070
C 0.6853 3.1570 2.5160
C 1.1629 2.0937 1.7499
C 0.6235 0.6890 -1.5194
C 0.9331 1.9969 -1.9036
C 0.5324 2.4611 -3.1670
C -0.1619 1.6210 -4.0484
C -0.4657 0.3148 -3.6706
C -0.0801 -0.1459 -2.4125
C 0.5949 -1.6965 0.5585
C -0.7643 -2.0690 0.5637
C -1.1430 -3.3709 0.8927
C -0.1661 -4.3156 1.2058
C 1.1935 -3.9586 1.1732
C 1.5833 -2.6421 0.8451
Pt 3.5229 -0.0397 0.0669
P 5.9829 -0.0397 0.0669
C 6.4689 0.0300 -1.7302
C 7.6259 0.6388 -2.2572
C 7.9533 0.5093 -3.6189
C 7.1310 -0.2132 -4.4858
C 5.9564 -0.7815 -4.0044
C 5.6191 -0.6480 -2.6490
C 6.3285 1.6403 0.6432
C 6.5328 1.7589 2.0392
C 6.8642 2.9820 2.6215
C 7.0068 4.1082 1.8169
C 6.8285 4.0033 0.4318
C 6.4914 2.7747 -0.1583
C 6.6367 -1.4963 1.0295
C 6.2870 -2.9095 0.5466
C 6.9460 -3.2071 -0.7955
C 8.4750 -2.9906 -0.7411
C 8.9080 -1.6542 -0.1096
C 8.1737 -1.3902 1.2050
H -1.8020 0.8068 0.6710
H -2.6416 2.6886 2.0377
H -1.0579 4.2120 3.1889
H 1.3795 3.8128 3.0312
H 2.2370 1.9421 1.6908
H 1.4682 2.6505 -1.2308
H 0.7595 3.4732 -3.4680
H -0.4653 1.9779 -5.0247
H -0.9994 -0.3418 -4.3499
H -0.3296 -1.1662 -2.1431
H -1.5390 -1.3655 0.2964
H -2.1931 -3.6479 0.8960
H -0.4695 -5.3255 1.4608
H 1.9349 -4.7125 1.3969
H 2.6416 -2.3302 0.7878
H 8.3010 1.1798 -1.6139
H 8.8618 0.9518 -4.0036
H 7.4031 -0.3339 -5.5302
H 5.3205 -1.3446 -4.6821
H 4.7094 -1.1337 -2.3125
H 6.4499 0.8982 2.6945
H 7.0166 3.0534 3.6943
H 7.2628 5.0586 2.2683
H 6.9582 4.8784 -0.1865
H 6.3720 2.7209 -1.2264
H 6.1964 -1.3864 2.0438
H 5.1868 -3.0490 0.5040
H 6.6896 -3.6368 1.2910
H 6.4794 -2.5750 -1.5411
H 6.7254 -4.2493 -1.1049
H 8.8949 -3.0668 -1.7690
H 8.9015 -3.7943 -0.1152
H 8.7106 -0.8336 -0.7761
H 10.0084 -1.6321 0.0396
H 8.4578 -0.3893 1.6028
H 8.5133 -2.1446 1.9461
