20

P          0.98540        0.06600        0.07370
F         -0.67260       -0.14750       -0.01340
F          0.96670       -0.34770        1.69560
F          0.82580        1.65050       -0.43970
Ag         3.44540        0.06600        0.07370
Br         3.39030        2.49150        0.63500
C          3.42710       -1.95230       -0.38270
C          3.42290       -2.35410       -1.65210
C          5.59540        0.06600        0.07370
N          6.35150        1.16270        0.30140
H          6.04480        2.13550        0.50070
C          7.62770        0.75260        0.21380
Cl         9.01920        1.79900        0.42910
C          7.63570       -0.59270       -0.06090
Cl         9.05210       -1.61030       -0.26140
N          6.36450       -1.02330       -0.15090
H          3.43430       -2.68270        0.41900
H          3.42280       -1.62390       -2.45380
H          3.42440       -3.41310       -1.89170
H          6.05650       -1.99880       -0.34900
