73

P          0.90750       -0.02280        0.03040
C         -0.01980       -1.06350       -1.15000
C         -0.37790       -0.55150       -2.41560
C         -0.88190       -1.38970       -3.41320
C         -1.02130       -2.75650       -3.17540
F         -1.47890       -3.57160       -4.15810
C         -0.65270       -3.28760       -1.93820
C         -0.14350       -2.45230       -0.93670
C          0.48330       -0.83060        1.59250
C          1.47180       -1.27140        2.49020
C          1.10480       -1.95160        3.65970
C         -0.24630       -2.17550        3.95260
F         -0.59830       -2.83860        5.08060
C         -1.22860       -1.72500        3.07280
C         -0.86770       -1.04810        1.90750
C          0.31480        1.62330       -0.42000
C         -1.06930        1.87010       -0.38870
C         -1.59120        3.07130       -0.84570
C         -0.73690        4.05250       -1.35170
F         -1.24920        5.21450       -1.82810
C          0.64560        3.82530       -1.39170
C          1.17560        2.60640       -0.92410
Ag         3.36750       -0.02280        0.03040
Br         3.36750        1.79680        1.87350
C          3.36750       -1.53330       -1.49960
C          4.14740       -2.49380       -1.95270
P          5.82750       -0.02280        0.03040
N          7.09790        1.03960        0.66610
C          6.73170        2.39050        0.16030
C          6.96380        1.13160        2.13770
O          6.19610        0.06440       -1.60530
C          6.52050       -0.98270       -2.38590
C          5.90270       -0.99560       -3.65360
C          5.99160       -2.11900       -4.47210
C          6.72470       -3.22710       -4.06150
C          7.41910       -3.19690       -2.85400
C          7.34570       -2.07970       -1.98910
C          8.13240       -2.15510       -0.72470
C          9.46650       -2.60000       -0.84730
C         10.31090       -2.67400        0.25300
C          9.83570       -2.33180        1.51270
C          8.50690       -1.93140        1.67420
C          7.63890       -1.82610        0.56530
O          6.35540       -1.42840        0.75880
H         -0.22900        0.48840       -2.66690
H         -1.13280       -0.98050       -4.38410
H         -0.73070       -4.35370       -1.76620
H          0.18740       -2.90660       -0.01300
H          2.52030       -1.11830        2.26880
H          1.86610       -2.30270        4.34240
H         -2.27250       -1.90970        3.28660
H         -1.65090       -0.73070        1.23440
H         -1.75970        1.11850       -0.02660
H         -2.66330        3.24440       -0.82280
H          1.30240        4.57730       -1.79810
H          2.23610        2.42610       -0.98990
H          2.38720       -1.58220       -1.94860
H          5.07760       -2.73870       -1.50950
H          3.76290       -3.13260       -2.75160
H          6.85370        2.46080       -0.93850
H          7.33360        3.19780        0.63270
H          5.66490        2.64950        0.38440
H          7.12560        0.17900        2.64390
H          5.95300        1.47770        2.46170
H          7.68100        1.86950        2.56030
H          5.28470       -0.16700       -3.95820
H          5.45330       -2.14280       -5.41030
H          6.75320       -4.11610       -4.67670
H          7.98030       -4.07760       -2.56560
H          9.87560       -2.86430       -1.81780
H         11.33690       -2.99100        0.12400
H         10.50150       -2.37910        2.36530
H          8.17470       -1.68900        2.67420
