71

P          1.03750       -0.04610       -0.08050
C          0.11590        1.51380        0.20160
C         -0.40140        1.88350        1.46140
C         -0.84810        3.21260        1.68580
C         -1.33440        3.67820        3.02480
C         -0.78650        4.15740        0.65200
C         -0.27110        3.80520       -0.58320
C          0.18760        2.51140       -0.80070
C          0.64500       -0.31980       -1.83740
C         -0.55490       -0.97210       -2.16950
C         -0.99890       -1.06230       -3.47940
C         -2.31070       -1.73930       -3.79330
C         -0.23160       -0.50150       -4.51030
C          0.97440        0.13310       -4.20160
C          1.40970        0.23950       -2.86600
C          0.45840       -1.30630        1.09000
C          1.35560       -1.98370        1.92500
C          0.89410       -2.97950        2.80710
C          1.83560       -3.70100        3.72000
C         -0.46930       -3.30360        2.84130
C         -1.37040       -2.61820        2.03140
C         -0.91470       -1.61520        1.17660
Ag         3.49750       -0.04610       -0.08050
Br         3.49750       -2.57130       -0.65610
C          3.49750        2.05020        0.39740
C          4.44860        2.94290        0.68720
C          5.64750       -0.04610       -0.08050
N          6.43620        0.88960       -0.69510
C          6.07140        1.98720       -1.61080
C          6.54960        1.70800       -3.04600
C          7.71250        0.49230       -0.50920
C          7.70780       -0.68730        0.18420
N          6.42960       -1.04370        0.41830
C          6.05060       -2.20710        1.22180
C          6.51320       -3.50500        0.56360
H         -0.39710        1.17650        2.27880
H         -1.30710        2.86860        3.78000
H         -2.37230        4.06380        2.93420
H         -0.68330        4.50940        3.37930
H         -1.10490        5.18140        0.81520
H         -0.18430        4.54850       -1.36880
H          0.64450        2.32910       -1.75380
H         -1.18040       -1.39000       -1.41010
H         -2.80160       -2.11550       -2.86760
H         -2.14740       -2.60120       -4.47100
H         -3.00650       -1.01710       -4.27190
H         -0.56890       -0.54890       -5.53800
H          1.55300        0.59180       -5.00010
H          2.32630        0.77450       -2.65140
H          2.40660       -1.73380        1.89180
H          2.87740       -3.33770        3.59970
H          1.80660       -4.78970        3.50580
H          1.52180       -3.53010        4.77220
H         -0.83650       -4.07740        3.50500
H         -2.42560       -2.86250        2.06920
H         -1.65150       -1.09100        0.58810
H          2.50440        2.46040        0.44590
H          5.49960        2.72960        0.73170
H          4.14030        3.96730        0.89470
H          6.53380        2.93720       -1.27190
H          4.97330        2.08750       -1.69150
H          7.65270        1.59000       -3.09910
H          6.26720        2.55940       -3.70350
H          6.07060        0.78980       -3.44950
H          8.58760        1.00020       -0.89030
H          8.57770       -1.25270        0.49160
H          4.96540       -2.20810        1.41840
H          6.51880       -2.13160        2.22760
H          6.13410       -3.57570       -0.47550
H          6.14410       -4.37330        1.14750
H          7.62190       -3.54070        0.53440
