40

P          1.07470        0.05630       -0.03530
C          0.28730       -1.62000       -0.31490
C         -1.23330       -1.74780       -0.39780
C          0.89640       -2.19940       -1.60520
C          0.71460        0.59160        1.69980
C          1.29350        1.99410        1.89600
C         -0.79060        0.66170        1.99970
C          0.36670        0.97030       -1.45000
Ag         3.53470        0.05630       -0.03530
Br         3.53470       -1.59800        1.95750
C          3.53470        1.42950       -1.68960
C          3.10240        2.68680       -1.64040
O          5.58470        0.05630       -0.03530
C          6.38210       -0.64550        0.74620
N          7.68250       -0.37930        0.50050
C          7.65650        0.53370       -0.47930
C          6.34940        0.79670       -0.81120
H          0.65170       -2.26370        0.51790
H         -1.65820       -1.15090       -1.22370
H         -1.75830       -1.51430        0.53200
H         -1.48460       -2.81560       -0.59150
H          0.54960       -1.64640       -2.50190
H          0.59620       -3.26180       -1.73480
H          2.00700       -2.16420       -1.57290
H          1.18400       -0.09350        2.43260
H          0.82010        2.71440        1.19180
H          2.38950        1.99080        1.73100
H          1.09820        2.34800        2.93250
H         -1.33020        1.25210        1.22560
H         -0.97440        1.13430        2.98750
H         -1.21870       -0.34260        2.09890
H         -0.74040        0.91990       -1.38070
H          0.69550        0.57610       -2.42730
H          0.61370        2.04340       -1.36930
H          3.95000        1.05980       -2.62190
H          2.68420        3.10480       -0.73460
H          3.15410        3.29660       -2.53950
H          6.08500       -1.35490        1.49650
H          8.53440        0.99480       -0.91450
H          6.03230        1.50920       -1.56050
