83

P          1.08670       -0.01990       -0.04560
C          0.20560       -1.46410        0.92940
C         -1.33880       -1.47100        0.94080
C          0.64180       -2.83810        0.36220
C          0.65790       -1.53320        2.41350
C          0.59870        1.68770        0.93180
C          1.13560        1.95470        2.37180
C          1.06790        2.99160        0.23030
C         -0.93220        1.86520        1.04600
C          0.38100       -0.28380       -1.82390
C          0.30120        0.69850       -3.13500
C          1.61120        1.10530       -3.83460
C         -0.52100       -0.05020       -4.21190
C         -0.41490        2.03850       -2.91820
Ag         3.54670       -0.01990       -0.04560
Br         3.54670        0.22100        2.53320
C          3.54670       -0.21990       -2.18630
C          3.34210       -1.32800       -2.92130
C          5.69670       -0.01990       -0.04560
N          6.46790        1.09880       -0.05210
C          6.07330        2.52880       -0.11790
C          4.55610        2.67710       -0.14590
C          6.59070        3.25770        1.13960
C          6.64270        3.18450       -1.38660
C          7.74720        0.64380       -0.04880
C          7.72910       -0.73220       -0.02620
N          6.44590       -1.15410       -0.01610
C          6.01530       -2.57180        0.04790
C          6.58180       -3.22650        1.32300
C          4.49250       -2.71060        0.13110
C          6.52990       -3.32030       -1.19750
H         -1.77240       -1.53610       -0.06970
H         -1.78810       -0.64240        1.48010
H         -1.70660       -2.35160        1.51670
H          0.34560       -2.97800       -0.69150
H          0.16190       -3.66440        0.94370
H          1.73440       -2.99500        0.46770
H          0.29690       -0.69320        3.00960
H          1.75060       -1.66460        2.49840
H          0.23450       -2.41780        2.93890
H          2.18770        2.28660        2.36200
H          0.95330        1.19060        3.12570
H          0.65730        2.85590        2.81950
H          2.14040        3.02880        0.07420
H          0.82680        3.89800        0.83930
H          0.54310        3.24810       -0.65790
H         -1.35410        1.25340        1.84850
H         -1.43970        1.72430        0.07080
H         -1.19590        2.89060        1.39960
H         -0.69390       -0.44080       -1.61810
H          0.77480       -1.25980       -2.16470
H          2.10320        0.24860       -4.30540
H          2.23230        1.70940       -3.14690
H          1.43800        1.77510       -4.70420
H         -0.05360       -1.02720       -4.45710
H         -0.56890        0.53740       -5.15930
H         -1.56360       -0.21930       -3.87330
H          0.27360        2.74160       -2.47540
H         -1.37840        1.94960       -2.38480
H         -0.59980        2.55160       -3.89000
H          3.95090        0.63770       -2.70600
H          3.01700       -2.28130       -2.53600
H          3.53970       -1.28760       -3.99070
H          4.11530        2.23550        0.77030
H          4.12520        2.17930       -1.03220
H          4.27800        3.74560       -0.18390
H          6.16950        2.80630        2.06850
H          6.28270        4.33180        1.11540
H          7.69830        3.22430        1.20150
H          6.26490        2.64920       -2.27890
H          7.74820        3.14240       -1.38360
H          6.32900        4.24200       -1.44100
H          8.62940        1.26740       -0.06080
H          8.60230       -1.37730       -0.01910
H          6.20220       -2.69330        2.22200
H          7.68930       -3.19590        1.33580
H          6.26270       -4.29090        1.38820
H          4.08020       -2.19300        1.01790
H          4.17950       -3.77670        0.16180
H          4.04010       -2.27140       -0.73970
H          7.63910       -3.29590       -1.24300
H          6.13490       -2.84900       -2.12330
H          6.21040       -4.38520       -1.18080
