88

P          1.05870        0.06530       -0.04780
C          0.46860       -0.92270        1.49160
C         -0.87890       -1.21500        1.98520
C         -2.17810       -1.05700        1.22210
C         -1.08830       -1.75170        3.28690
C         -0.03440       -2.11590        4.11140
C         -0.27070       -2.61250        5.52140
C          1.24000       -2.07130        3.59040
C          1.51740       -1.54110        2.31820
C          2.92680       -1.77790        1.84040
C          0.79110        1.89700        0.48610
C          1.44360        2.94400       -0.27520
C          2.54490        2.72910       -1.27550
C          1.05770        4.29760       -0.15070
C          0.06260        4.68880        0.72990
C         -0.46530        6.09220        0.80160
C         -0.48310        3.75020        1.56310
C         -0.14160        2.39480        1.47760
C         -0.91550        1.59110        2.42190
C          0.13910       -0.72920       -1.51700
C         -0.24980        0.09620       -2.64450
C          0.14270        1.51920       -2.82520
C         -1.03190       -0.39190       -3.69640
C         -1.47770       -1.69150       -3.72080
C         -2.35170       -2.15900       -4.85620
C         -1.10950       -2.53860       -2.68370
C         -0.30550       -2.10080       -1.58990
C         -0.00480       -3.17220       -0.57260
Ag         3.51870        0.06530       -0.04780
Br         3.51870        1.40030        2.17170
C          3.51870       -1.04290       -1.89020
C          3.55800       -0.50490       -3.10750
P          5.97870        0.06530       -0.04780
C          7.20610        0.14520        1.29470
C          6.49510       -1.35590       -1.06080
C          6.36500        1.76580       -0.53060
C          6.04040        2.89590        0.23530
C          6.40370        4.17440       -0.20370
C          7.10440        4.33470       -1.40130
C          7.44420        3.21680       -2.16320
C          7.07490        1.94110       -1.73170
H         -2.02440       -0.64620        0.21090
H         -2.92290       -0.45640        1.79140
H         -2.64940       -2.06090        1.13340
H         -2.09820       -1.88820        3.66520
H         -1.33950       -2.54610        5.80700
H          0.30250       -1.98100        6.23600
H          0.06410       -3.66410        5.63170
H          2.05430       -2.47400        4.19940
H          3.26030       -2.76650        2.23910
H          3.69750       -1.12450        2.26590
H          2.97200       -1.96730        0.75610
H          2.80970        1.67320       -1.40420
H          3.45170        3.26360       -0.93280
H          2.27390        3.17920       -2.25500
H          1.51060        5.05210       -0.78330
H          0.03170        6.76220        0.07330
H         -0.34140        6.49170        1.82860
H         -1.55540        6.07630        0.56380
H         -1.24490        4.08920        2.26050
H         -1.56680        2.14590        3.12910
H         -0.23040        0.99060        3.04940
H         -1.61720        1.13830        1.75130
H         -0.22090        2.12510       -1.98230
H         -0.27850        1.99680       -3.73820
H          1.22450        1.50200       -3.00340
H         -1.30730        0.25730       -4.52390
H         -2.53010       -1.34790       -5.59780
H         -3.33980       -2.46970       -4.46180
H         -1.88170       -3.00820       -5.39170
H         -1.46680       -3.56460       -2.73270
H         -0.42110       -4.16020       -0.86670
H         -0.48340       -2.98570        0.38660
H          1.08860       -3.28920       -0.45470
H          3.46200       -2.12290       -1.80040
H          3.60090        0.56420       -3.25950
H          3.54030       -1.16290       -3.97290
H          7.07750       -0.80180        1.87130
H          6.95730        0.95950        2.00840
H          8.24900        0.20630        0.94140
H          6.16700       -2.28360       -0.54160
H          7.60100       -1.37380       -1.13660
H          6.07020       -1.32570       -2.07820
H          5.52410        2.80700        1.16980
H          6.14800        5.04120        0.39060
H          7.39010        5.32330       -1.73580
H          7.99740        3.33690       -3.08640
H          7.35770        1.08600       -2.33380
