87

P          0.93780       -0.06010       -0.05020
C         -0.13010        1.26660        0.61660
C         -0.47430        1.30480        1.98000
C         -1.23470        2.36540        2.49390
C         -1.64450        3.41600        1.65700
C         -2.49420        4.54180        2.16510
C         -1.25090        3.41640        0.31810
C         -0.49260        2.36680       -0.19140
C          0.40340        0.05430       -1.81440
C          1.29290        0.26780       -2.88800
C          0.79730        0.45840       -4.19650
C         -0.58720        0.43680       -4.45610
C         -1.15010        0.66300       -5.83610
C         -1.46290        0.22300       -3.40340
C         -0.97970        0.03030       -2.10750
C          0.31060       -1.51720        0.84800
C         -1.08290       -1.70260        0.95460
C         -1.62280       -2.77820        1.65160
C         -0.78310       -3.70570        2.27020
C         -1.37400       -4.87240        3.01210
C          0.61010       -3.52630        2.19210
C          1.15500       -2.43500        1.48830
Ag         3.39780       -0.06010       -0.05020
Br         3.39780       -2.35380       -1.25310
C          3.39780        1.84390        0.94840
C          4.24070        2.39280        1.79810
P          5.85780       -0.06010       -0.05020
C          6.79830        1.51410       -0.57710
C          6.75610        2.78230        0.08480
C          7.14210        3.97000       -0.54110
C          7.63120        3.96240       -1.83790
C          7.78930        2.74620       -2.48170
C          7.40850        1.55400       -1.86190
C          6.46880       -0.13660        1.66160
C          5.61320       -0.35220        2.75760
C          6.14140       -0.49510        4.04820
C          7.52370       -0.46060        4.25300
C          8.38210       -0.28540        3.16670
C          7.85930       -0.12360        1.88090
C          6.44700       -1.30120       -1.26960
C          6.14250       -1.26200       -2.66990
C          5.24180       -0.23370       -3.30840
C          6.75440       -2.18500       -3.53770
C          7.65040       -3.13610       -3.05350
C          7.94180       -3.18710       -1.69420
C          7.34590       -2.28500       -0.81050
H         -0.15560        0.51760        2.65040
H         -1.50220        2.36670        3.54290
H         -2.74010        4.41780        3.24000
H         -3.44460        4.55720        1.58890
H         -1.97410        5.51260        2.02280
H         -1.52830        4.23490       -0.33580
H         -0.19060        2.43850       -1.22570
H          2.35110        0.32050       -2.70480
H          1.49340        0.63860       -5.00810
H         -0.35100        0.83340       -6.58620
H         -1.82270        1.54850       -5.83380
H         -1.74420       -0.22630       -6.14790
H         -2.53970        0.21310       -3.56720
H         -1.71470       -0.08570       -1.33560
H         -1.77880       -1.00870        0.52310
H         -2.70100       -2.87950        1.70840
H         -2.48670       -4.85660        2.98030
H         -1.06140       -4.85010        4.07640
H         -1.03430       -5.82110        2.54760
H          1.27090       -4.23070        2.68030
H          2.22710       -2.30740        1.45230
H          2.47830        2.40240        0.81130
H          5.11340        1.89840        2.12440
H          4.02940        3.36170        2.23620
H          6.39660        2.95160        1.05110
H          7.02740        4.92220       -0.03080
H          7.88250        4.89150       -2.33660
H          8.18360        2.73550       -3.49430
H          7.53960        0.69070       -2.46740
H          4.54250       -0.41070        2.61580
H          5.48160       -0.64350        4.89450
H          7.93280       -0.58600        5.24830
H          9.45450       -0.28650        3.32030
H          8.54530       -0.01280        1.05050
H          4.81570        0.47860       -2.57650
H          4.41210       -0.73530       -3.84660
H          5.82490        0.35340       -4.05420
H          6.55530       -2.15120       -4.60340
H          8.12890       -3.82540       -3.73930
H          8.65120       -3.91910       -1.32630
H          7.62070       -2.33360        0.23260
