64

P          1.00050       -0.08360       -0.05480
C          0.23970       -1.37600       -1.17000
C         -1.28720       -1.46610       -1.33030
C          0.85360       -1.19660       -2.57090
C          0.60290       -0.52720        1.70180
C          1.14930        0.57070        2.61830
C         -0.91120       -0.62340        1.96100
C          0.27420        1.41990       -0.79790
Ag         3.46050       -0.08360       -0.05480
Br         3.46050       -2.53270        0.78790
C          3.46050        1.94940       -0.75440
C          2.97710        2.98490       -0.07370
P          5.92050       -0.08360       -0.05480
N          7.09470        1.15450       -0.54600
C          6.86400        2.41910        0.18790
C          8.48120        0.87790       -0.87860
O          6.24360       -1.44450       -0.95570
C          6.42070       -2.66910       -0.41860
C          5.71280       -3.72370       -1.01120
C          5.76690       -5.01880       -0.49710
C          6.57040       -5.29090        0.60490
C          7.32770       -4.27580        1.18300
C          7.26000       -2.94510        0.70680
C          8.11980       -1.93280        1.39230
C          9.45740       -2.27110        1.66010
C         10.31690       -1.36860        2.28610
C          9.83910       -0.12770        2.69660
C          8.50350        0.21520        2.47530
C          7.63670       -0.66590        1.79900
O          6.36880       -0.27580        1.54270
H          0.60250       -2.35770       -0.79510
H         -1.72320       -0.53130       -1.72860
H         -1.81920       -1.76530       -0.42400
H         -1.51620       -2.27880       -2.05600
H          0.50540       -0.25900       -3.05050
H          0.56670       -2.03650       -3.23840
H          1.96360       -1.17540       -2.51370
H          1.07010       -1.49080        1.98330
H          0.66990        1.54810        2.38800
H          2.24780        0.66620        2.50530
H          0.92900        0.32400        3.68080
H         -1.44490        0.27870        1.58650
H         -1.12470       -0.72320        3.04650
H         -1.33020       -1.53720        1.52520
H         -0.83150        1.31900       -0.78320
H          0.61580        1.60070       -1.83190
H          0.48950        2.29830       -0.16510
H          3.90060        2.12460       -1.73070
H          2.52900        2.85510        0.90270
H          3.02090        3.97660       -0.51720
H          5.79280        2.54680        0.46080
H          7.12990        3.29190       -0.44140
H          7.44400        2.45360        1.12410
H          8.55390       -0.02910       -1.50670
H          9.11320        0.81800        0.02160
H          8.85920        1.73480       -1.48370
H          5.07410       -3.52620       -1.86780
H          5.17770       -5.80710       -0.94840
H          6.60740       -6.29230        1.01360
H          7.94570       -4.52110        2.03540
H          9.86050       -3.22810        1.35310
H         11.35410       -1.63430        2.45250
H         10.51010        0.57160        3.18100
H          8.15730        1.18400        2.80070
