46

P          0.95810       -0.06870       -0.05940
C          0.17420       -1.69610        0.41260
C         -1.35330       -1.85710        0.38750
C          0.77950       -2.78470       -0.49840
C          0.55630        1.18360        1.25350
C          1.15400        2.52810        0.83340
C         -0.95320        1.38150        1.45460
C          0.22710        0.16570       -1.71790
Ag         3.41810       -0.06870       -0.05940
Br         3.26320       -0.48260        2.40100
C          3.43790        0.45970       -2.08130
C          3.01070       -0.27860       -3.09970
N          5.51810       -0.06870       -0.05940
C          6.20280        0.03430        1.12170
C          7.58770        0.18860        1.14600
C          8.31240        0.15820       -0.03530
C          9.80270        0.32370       -0.04440
C          7.62840       -0.01560       -1.23690
C          6.23440       -0.10250       -1.23380
H          0.52690       -1.92150        1.44040
H         -1.77820       -1.66980       -0.61240
H         -1.87970       -1.25680        1.13660
H         -1.59890       -2.90830        0.67100
H          0.43970       -2.67180       -1.54860
H          0.48490       -3.79340       -0.15680
H          1.89230       -2.73050       -0.48130
H          0.98210        0.89960        2.23190
H          0.70450        2.87170       -0.12490
H          2.25080        2.44410        0.71470
H          0.94240        3.29770        1.60960
H         -1.47150        1.57860        0.49020
H         -1.15030        2.23530        2.13680
H         -1.39890        0.52350        1.97110
H         -0.87760        0.20160       -1.61070
H          0.46930       -0.64150       -2.42520
H          0.54300        1.14480       -2.12830
H          3.85910        1.43710       -2.29770
H          2.58790       -1.26170       -2.94710
H          3.08620        0.12680       -4.10660
H          5.70810        0.11490        2.06530
H          8.09130        0.34310        2.10140
H         10.18940        0.52710        0.98470
H         10.08530        1.17650       -0.69020
H         10.28680       -0.60440       -0.42130
H          8.16530       -0.06520       -2.18100
H          5.75670       -0.21690       -2.18440
