50

P          0.93010        0.03220        0.06380
C         -0.06290       -1.47940       -0.05920
C         -1.46000       -1.51450        0.09870
C         -2.12460       -2.74680        0.17870
C         -1.40520       -3.94530        0.10470
F         -2.04640       -5.13590        0.21670
C         -0.02040       -3.91670       -0.06020
C          0.64590       -2.69140       -0.13930
C          0.28610        0.37850        1.71050
C          0.62110       -0.44400        2.80220
C          0.09970       -0.17100        4.07170
C         -0.76670        0.91060        4.25450
F         -1.27040        1.17480        5.48580
C         -1.11760        1.71910        3.16890
C         -0.59670        1.45210        1.89840
C          0.42600        0.89260       -1.45410
C         -0.54260        0.41360       -2.36220
C         -0.99420        1.22790       -3.40790
C         -0.48100        2.51640       -3.57070
F         -0.93500        3.30770       -4.57420
C          0.48670        2.99530       -2.68710
C          0.93010        2.19200       -1.63230
Ag         3.39010        0.03220        0.06380
Br         3.39010       -1.01540       -2.30480
C          3.39010        0.90180        2.03010
C          2.60830        1.79860        2.63090
C          5.54010        0.03220        0.06380
N          6.30080       -0.47580       -0.93620
H          6.00070       -0.93450       -1.81690
C          7.57930       -0.28510       -0.56350
Cl         8.97710       -0.77190       -1.50440
C          7.59210        0.34750        0.65120
Cl         9.00250        0.84540        1.56840
N          6.32700        0.54520        1.04300
H         -2.02360       -0.59760        0.20280
H         -3.19610       -2.77590        0.32640
H          0.54230       -4.84210       -0.09860
H          1.72590       -2.69120       -0.22140
H          1.29070       -1.28490        2.67210
H          0.36840       -0.79780        4.91250
H         -1.79170        2.55310        3.31010
H         -0.87550        2.08320        1.06420
H         -0.99700       -0.55730       -2.26250
H         -1.76140        0.86670       -4.08110
H          0.87660        3.99880       -2.80400
H          1.65190        2.59860       -0.93430
H          4.21810        0.58770        2.64100
H          1.78720        2.29230        2.14880
H          2.84350        2.08510        3.65560
H          6.07370        1.02740        1.92650
