64

P          1.02250       -0.06600       -0.07170
C          0.21110       -0.69190       -1.56970
C         -1.17160       -0.84580       -1.73170
C         -1.68220       -1.34320       -2.93980
C         -0.81760       -1.70950       -3.99500
O         -1.26670       -2.25720       -5.15490
C         -2.57440       -2.61840       -5.40580
C          0.55770       -1.52540       -3.83770
C          1.06430       -1.01780       -2.64050
C          0.50350       -1.56280        0.88160
C          0.75770       -2.90030        0.52320
C          0.34490       -3.96610        1.33170
C         -0.38950       -3.73430        2.50570
O         -0.82920       -4.74780        3.30300
C         -0.60860       -6.09590        3.08210
C         -0.69430       -2.41320        2.85140
C         -0.25020       -1.34510        2.05410
C          0.23230        1.56690        0.19830
C         -0.62300        2.14330       -0.75790
C         -1.34440        3.30290       -0.47310
C         -1.21380        3.94240        0.77100
O         -1.95140        5.03660        1.10310
C         -2.96840        5.57230        0.33330
C         -0.32130        3.41100        1.71020
C          0.37980        2.22770        1.43520
Ag         3.48250       -0.06600       -0.07170
Br         3.77930       -2.50510       -0.36690
C          3.26150        2.02130        0.12670
C          3.71530        2.93760       -0.56940
N          5.58250       -0.06600       -0.07170
C          6.27220       -0.79340        0.85200
C          7.66690       -0.66710        0.94050
C          8.34860        0.09870       -0.00990
Cl        10.09840        0.22080        0.03260
C          7.62800        0.77930       -0.99010
C          6.23330        0.73980       -0.95670
H         -1.84920       -0.57270       -0.93680
H         -2.75180       -1.44930       -3.04280
H         -2.63950       -3.11620       -6.39500
H         -3.22580       -1.72020       -5.40880
H         -2.92110       -3.33810       -4.63210
H          1.24010       -1.78890       -4.63980
H          2.13710       -0.88890       -2.54930
H          1.25520       -3.15720       -0.38440
H          0.59060       -4.97370        1.02540
H         -1.10050       -6.69340        3.87790
H          0.48050       -6.31570        3.10040
H         -1.03760       -6.40210        2.10350
H         -1.27720       -2.21110        3.74320
H         -0.50590       -0.33940        2.36000
H         -0.78620        1.69270       -1.72150
H         -2.02450        3.67990       -1.22380
H         -3.44470        6.41520        0.87480
H         -3.74940        4.80290        0.14050
H         -2.56660        5.94740       -0.63120
H         -0.20040        3.89330        2.67370
H          1.01620        1.81410        2.20730
H          2.83770        2.26750        1.14400
H          4.07770        2.78020       -1.59810
H          3.52020        3.98750       -0.26090
H          5.73620       -1.35150        1.60880
H          8.21310       -1.15180        1.74040
H          8.13940        1.34610       -1.75930
H          5.67100        1.25910       -1.71860
