57

P          1.00930       -0.06890        0.07190
C          0.25750        0.06810       -1.61820
C         -1.11850        0.03980       -2.01540
C         -2.28190       -0.05930       -1.08040
C         -1.44660        0.05760       -3.39230
C         -0.45930        0.06240       -4.37380
C          0.87570        0.06650       -4.00290
C          1.22480        0.07410       -2.65110
C          0.35570       -1.81190        0.42700
C         -0.47730       -2.21660        1.54020
C         -1.00690       -1.32950        2.62120
C         -0.88030       -3.56460        1.68550
C         -0.51970       -4.52990        0.76260
C          0.25810       -4.17130       -0.32810
C          0.68930       -2.84200       -0.49600
C          0.47510        1.50510        0.92880
C          0.74610        1.74520        2.32990
C          1.58170        0.86280        3.22240
C          0.18600        2.86240        2.98370
C         -0.61630        3.76200        2.30100
C         -0.88190        3.55790        0.95290
C         -0.35190        2.44790        0.27590
Ag         3.46930       -0.06890        0.07190
Br         3.54750        2.14500       -1.06280
C          3.45590       -1.97410        1.06560
C          4.41300       -2.63760        1.73440
C          5.61930       -0.06890        0.07190
N          6.36220        0.93790       -0.43710
C          7.63790        0.54710       -0.24620
C          7.63220       -0.67790        0.36700
O          6.38520       -1.02420        0.53150
H         -1.97570       -0.21300       -0.03260
H         -2.91500       -0.92070       -1.39530
H         -2.89610        0.86250       -1.16530
H         -2.48060        0.03010       -3.71720
H         -0.72970        0.04220       -5.42440
H          1.64410        0.04670       -4.76780
H          2.27910        0.04620       -2.41740
H         -0.81000       -0.27350        2.43860
H         -0.57630       -1.64800        3.59750
H         -2.11200       -1.45430        2.68740
H         -1.49970       -3.87660        2.52380
H         -0.85430       -5.55590        0.89670
H          0.52650       -4.93930       -1.04320
H          1.29840       -2.62420       -1.35960
H          2.09630        0.05500        2.67690
H          0.94950        0.42040        4.02700
H          2.34810        1.49060        3.72970
H          0.36730        3.03900        4.04140
H         -1.03630        4.61510        2.82520
H         -1.52260        4.26050        0.43670
H         -0.63130        2.33200       -0.75440
H          2.54670       -2.50780        1.11550
H          5.39400       -2.27790        1.96260
H          4.18120       -3.60450        2.17590
H          8.51390        1.11260       -0.53100
H          8.48320       -1.27360        0.67150
