58

P          0.97710        0.01210       -0.09660
C         -0.01270        1.09010        0.98880
C         -1.02760        1.97720        0.57600
C         -1.63090        2.84330        1.50240
C         -1.18780        2.88120        2.82630
C         -0.16230        2.03350        3.23970
C          0.40850        1.13680        2.33340
C          0.62070        0.66720       -1.76750
C          0.98910        1.97820       -2.11640
C          0.70470        2.52200       -3.36410
C          0.01700        1.77530       -4.29720
C         -0.37650        0.47500       -3.98720
C         -0.06720       -0.08830       -2.73330
C          0.33820       -1.68970        0.14910
C         -1.04100       -2.06450       -0.03540
C         -2.15860       -1.13200       -0.42120
C         -1.43010       -3.40070        0.14860
C         -0.50650       -4.36970        0.51610
C          0.82490       -4.01420        0.72400
C          1.23910       -2.68890        0.54960
Ag         3.43710        0.01210       -0.09660
Br         3.43710       -1.94850       -1.78900
C          3.43710        1.63960        1.30830
C          2.95680        2.83720        1.00200
N          5.53710        0.01210       -0.09660
C          6.43800        0.59580        0.82830
C          6.12100        1.11870        2.19230
C          7.83670        0.57080        0.63170
C          8.38980       -0.03130       -0.46240
C          7.55310       -0.64770       -1.35810
C          6.16850       -0.62140       -1.15800
H         -1.36030        2.01690       -0.45120
H         -2.41430        3.51710        1.18390
H         -1.63010        3.57440        3.53140
H          0.20110        2.07980        4.25970
H          1.22550        0.51300        2.67460
H          1.46780        2.60200       -1.44190
H          1.01580        3.53720       -3.58280
H         -0.22010        2.20880       -5.26570
H         -0.93080       -0.10570       -4.71520
H         -0.38310       -1.08360       -2.52310
H         -1.83150       -0.10990       -0.59660
H         -2.92770       -1.11840        0.38260
H         -2.63900       -1.47780       -1.36080
H         -2.46260       -3.69690       -0.00380
H         -0.82660       -5.39540        0.64380
H          1.53420       -4.77170        1.02470
H          2.27640       -2.44590        0.72630
H          3.94780        1.73610        2.21450
H          2.62440        3.05570        0.03360
H          3.08640        3.68330        1.67080
H          5.42890        0.40780        2.69780
H          5.90530        2.20850        2.15270
H          6.98310        1.07840        2.89190
H          8.52230        1.01480        1.35070
H          9.46430       -0.03520       -0.60090
H          7.97860       -1.13210       -2.22370
H          5.66870       -1.07430       -1.96570
