56

P          1.27500        0.00000        0.00000
N          0.18490        1.19600       -0.73720
C         -1.23310        1.01890       -0.48510
C         -1.46010       -0.28070        0.27140
C         -2.97630       -0.46860        0.44730
C         -0.84600       -1.45940       -0.58340
N          0.61260       -1.34850       -0.89440
N          0.68950        0.27660        1.62200
C         -0.73710       -0.14350        1.67640
Ag         3.73500        0.00030       -0.00050
Br         3.73560       -2.16030        1.42780
C          3.73450        1.79390       -1.18610
C          3.86050        1.77880       -2.50990
P          6.19500        0.00070       -0.00090
N          7.21980       -0.30060        1.44490
C          8.57940        0.27390        1.52770
C          6.44490        0.25240        2.57720
N          6.68540       -1.65940       -0.60440
C          8.14320       -1.87960       -0.71350
C          6.09840       -2.89020       -0.08820
N          6.64320        1.54570       -0.79660
C          6.50350        2.74880        0.04320
C          7.94800        1.51860       -1.48380
H          0.37350        1.22100       -1.76640
H         -1.78290        1.02560       -1.45410
H         -1.59640        1.88950        0.10030
H         -3.47750       -0.50520       -0.55020
H         -3.41530        0.39770        0.99660
H         -3.20260       -1.39670        0.99500
H         -1.40370       -1.53230       -1.54700
H         -1.01710       -2.40910       -0.04420
H          0.76770       -1.17450       -1.91330
H          0.77560        1.30360        1.80590
H         -1.29260        0.60290        2.29320
H         -0.81990       -1.11440        2.19810
H          3.60240        2.74440       -0.68240
H          3.97640        0.84580       -3.04650
H          3.83490        2.71700       -3.05810
H          9.27250       -0.12310        0.77780
H          9.02530        0.00270        2.50880
H          8.59530        1.37450        1.49450
H          5.41360       -0.15750        2.60900
H          6.35210        1.36090        2.51290
H          6.91450        0.00660        3.55350
H          8.67610       -1.01970       -1.13830
H          8.35640       -2.72320       -1.40420
H          8.58090       -2.16600        0.27060
H          5.09060       -3.00820       -0.52400
H          6.21090       -2.95030        1.01610
H          6.60790       -3.79570       -0.48800
H          5.48250        2.84640        0.44330
H          6.71720        3.65690       -0.56320
H          7.19310        2.77050        0.89590
H          7.97400        0.69410       -2.21830
H          8.79370        1.45710       -0.78050
H          8.08400        2.44880       -2.07230
