66

P          0.98130        0.07790        0.05980
C         -0.13930        0.24160       -1.47120
C         -1.63000        0.03080       -1.23530
C         -0.03460        1.60250       -2.17420
C          0.37380       -0.82340       -2.48500
C          0.51620       -1.60930        0.60410
C          1.28300       -2.71800        0.21420
C          0.89280       -4.02020        0.55830
C         -0.27720       -4.23150        1.29200
C         -1.07270       -3.14940        1.65740
C         -0.68630       -1.84910        1.30120
C          0.49980        1.49090        1.11210
C         -0.17970        1.28310        2.32890
C         -0.68070        2.35540        3.06770
C         -0.48860        3.65970        2.62050
C          0.23030        3.89110        1.44630
C          0.73080        2.81460        0.69930
Ag         3.44130        0.07790        0.05980
Br         3.26800       -0.87150        2.34810
C          3.80590        0.64350       -1.93010
C          3.32470        1.60050       -2.70630
C          5.59130        0.07790        0.05980
N          6.35930        0.95940       -0.52690
C          5.97610        2.23480       -1.15590
C          5.00310        3.04260       -0.26920
C          7.76040        0.71820       -0.25470
C          7.78270       -0.46550        0.68570
N          6.39990       -0.83680        0.81250
C          6.05900       -2.16040        1.32520
C          5.27730       -3.00730        0.31730
H         -2.01470        0.80330       -0.54040
H         -1.84580       -0.98390       -0.86570
H         -2.16630        0.13920       -2.20890
H         -0.45430        2.44070       -1.59380
H         -0.51030        1.59980       -3.17770
H          0.96550        1.81510       -2.38990
H          0.23370       -1.85520       -2.10740
H          1.45950       -0.69270       -2.69720
H         -0.15460       -0.76190       -3.46050
H          2.17360       -2.57990       -0.38360
H          1.48270       -4.87200        0.24570
H         -0.58790       -5.23440        1.55780
H         -1.99410       -3.30270        2.19950
H         -1.36360       -1.05230        1.55430
H         -0.35290        0.30410        2.72680
H         -1.23040        2.16930        3.98230
H         -0.89540        4.48690        3.18890
H          0.38330        4.90730        1.10720
H          1.26520        3.02450       -0.21560
H          4.59210        0.04310       -2.38670
H          2.77370        2.40580       -2.26790
H          3.68170        1.68980       -3.73000
H          5.67790        2.10240       -2.19380
H          6.89240        2.86070       -1.27300
H          4.05050        2.50810       -0.10400
H          4.77290        4.00820       -0.77420
H          5.45440        3.25750        0.71600
H          8.22190        1.60070        0.24710
H          8.27410        0.51300       -1.21420
H          8.17660       -0.19350        1.68880
H          8.38230       -1.28290        0.23150
H          5.54470       -2.10010        2.29400
H          6.99650       -2.72400        1.54140
H          4.30550       -2.53790        0.09530
H          5.08770       -4.01630        0.74690
H          5.83720       -3.13710       -0.63380
