81

P          1.05050        0.03520       -0.07880
C          0.43320        0.42650       -1.92650
C          0.92770       -0.34150       -3.19250
C          0.12810       -1.60720       -3.48880
C         -1.34900       -1.21670       -3.77830
C         -1.99520       -0.23150       -2.77030
C         -1.03160        0.86190       -2.33730
C          0.42980       -1.81190        0.02010
C          0.50860       -2.37950        1.46580
C         -0.63960       -1.85170        2.39580
C         -2.04280       -2.14180        1.87650
C         -2.15260       -1.59830        0.46510
C         -1.03270       -2.23270       -0.37620
C          0.38430        1.47900        1.10220
C         -0.28180        2.71960        0.66990
C         -0.40630        3.36120       -0.69150
C         -0.88500        3.61120        1.58290
C         -0.84320        3.43680        2.94040
C         -1.53210        4.42060        3.85540
C         -0.12720        2.37060        3.42550
C          0.48910        1.41170        2.58700
C          1.19860        0.39380        3.45860
Ag         3.51050        0.03520       -0.07880
Br         3.51050       -1.79070       -1.91560
C          3.51050        1.55100        1.44600
C          4.41120        1.73520        2.41910
N          5.61050        0.03520       -0.07880
C          6.35140        1.12410        0.29380
C          7.73950        1.16270        0.13330
C          8.45210        0.06290       -0.39190
N          9.88690        0.09180       -0.62150
C         10.67380        1.31700       -0.52420
C         10.66190       -1.07860       -1.01600
C          7.67190       -1.06780       -0.71890
C          6.28490       -1.04020       -0.58490
H          1.06510        1.31720       -2.05780
H          1.99620       -0.45610       -3.23830
H          0.79600        0.30500       -4.09180
H          0.29810       -2.33330       -2.68640
H          0.52700       -2.11680       -4.39030
H         -1.98830       -2.11930       -3.89050
H         -1.33500       -0.69130       -4.75500
H         -2.41650       -0.65830       -1.86860
H         -2.90480        0.21020       -3.23120
H         -1.56920        1.46250       -1.60710
H         -0.91810        1.49100       -3.25830
H          1.11120       -2.40170       -0.61710
H          1.51860       -2.21500        1.87310
H          0.38740       -3.48580        1.43230
H         -0.54350       -2.26860        3.41950
H         -0.63800       -0.76800        2.43820
H         -2.81330       -1.66180        2.52570
H         -2.23550       -3.23620        1.87560
H         -2.07290       -0.48770        0.44740
H         -3.15670       -1.87710        0.06920
H         -1.23510       -2.14680       -1.40830
H         -1.14390       -3.33810       -0.27660
H          0.16210        2.95320       -1.49940
H          0.01060        4.39130       -0.64630
H         -1.47790        3.47850       -0.96310
H         -1.40010        4.49930        1.22910
H         -2.04400        5.23120        3.28730
H         -0.79720        4.89880        4.53580
H         -2.30900        3.90400        4.45980
H         -0.08040        2.28160        4.51390
H          0.49390       -0.00840        4.23670
H          2.00570        0.89720        4.03220
H          1.65690       -0.43400        2.92770
H          2.66540        2.20700        1.50170
H          5.27760        1.09970        2.54100
H          4.26390        2.53170        3.14250
H          5.89120        2.04700        0.58920
H          8.20480        2.09670        0.40790
H         10.11410        2.22970       -0.27490
H         11.16000        1.51820       -1.50400
H         11.45460        1.18150        0.24640
H         10.10450       -2.02580       -1.05400
H         11.48550       -1.25130       -0.29040
H         11.11160       -0.91320       -2.01790
H          8.07760       -1.97870       -1.11480
H          5.77550       -1.94500       -0.85800
