109

P          0.94440       -0.04710        0.06840
C          0.32600       -0.15010        1.81760
C         -0.43180        0.91390        2.38710
C         -0.71460        0.97090        3.75350
C         -0.29480       -0.05130        4.59140
C          0.36170       -1.16020        4.05230
C          0.66050       -1.22130        2.67230
C          0.29890        1.34350       -1.00400
C          0.03190        2.60970       -0.39870
C         -0.56450        3.66220       -1.07730
C         -0.93030        3.50860       -2.40130
C         -0.67620        2.29760       -3.04750
C         -0.06920        1.22260       -2.36600
C         -0.22000       -1.28380       -0.69410
C         -1.69110       -1.05480       -0.76490
C         -2.31830       -1.09960       -2.02080
C         -3.70060       -0.97930       -2.11760
C         -4.46730       -0.81450       -0.96140
C         -3.84980       -0.78060        0.29090
C         -2.46790       -0.91020        0.39060
Ag         3.40440       -0.04710        0.06840
Br         3.06240        0.03220       -2.48050
C          3.61610       -0.07320        2.23920
C          2.83120        0.46270        3.20410
C          5.55440       -0.04710        0.06840
N          6.31630        1.14870        0.22940
C          6.08030        2.69560        0.13550
C          4.80490        3.34560       -0.14600
C          3.53770        2.65200       -0.38140
C          2.88110        2.70880        1.00640
C          2.75500        3.28700       -1.58940
C          4.61140        4.75400       -0.13940
C          5.60060        5.61980        0.04370
C          6.83530        5.13160        0.26070
C          7.14150        3.73560        0.33330
C          8.61420        3.47950        0.60980
C          9.24410        2.87700       -0.66390
C          9.48210        4.69700        1.00980
C          7.50560        0.62030        0.58620
C          7.51060       -0.72930        0.60460
N          6.30420       -1.23610        0.29970
C          6.10240       -2.78680        0.25930
C          7.05310       -3.79600        0.82910
C          8.38100       -3.56530        1.57580
C          8.78920       -4.63480        2.63980
C          9.52120       -3.51590        0.53770
C          6.77450       -5.19540        0.70500
C          5.67520       -5.69120        0.09340
C          4.78470       -4.84110       -0.42650
C          4.94930       -3.43110       -0.37340
C          3.76540       -2.73660       -0.88610
C          3.12610       -3.23580       -2.22470
C          2.77290       -2.88490        0.25040
H         -0.79470        1.74330        1.83710
H         -1.23470        1.83160        4.16460
H         -0.48250        0.02230        5.65750
H          0.68180       -1.95000        4.71640
H          1.21890       -2.06360        2.31160
H          0.27290        2.85900        0.60760
H         -0.74680        4.60130       -0.56070
H         -1.40560        4.33360       -2.91620
H         -0.96760        2.19260       -4.08320
H          0.08870        0.31210       -2.91370
H         -0.14130       -2.23730       -0.13700
H          0.18140       -1.49720       -1.70600
H         -1.74010       -1.25370       -2.92520
H         -4.17280       -1.02870       -3.08860
H         -5.54020       -0.72880       -1.03530
H         -4.43850       -0.67290        1.19110
H         -2.02550       -0.92600        1.37000
H          4.54630       -0.43880        2.63650
H          1.95800        1.06430        3.04610
H          3.08820        0.41920        4.26720
H          3.85300        1.68750       -0.67910
H          2.55570        3.72960        1.29520
H          3.62370        2.41400        1.77770
H          2.06470        2.02230        1.10300
H          2.26360        4.22220       -1.27030
H          1.91630        2.82760       -2.11690
H          3.48120        3.43630       -2.41340
H          3.66480        5.24840       -0.27870
H          5.39760        6.68650        0.01000
H          7.53610        5.93580        0.37640
H          8.64760        2.89270        1.54290
H          9.20140        3.62070       -1.48730
H          8.71440        1.99520       -1.06710
H         10.29690        2.59640       -0.46730
H          9.60540        5.40620        0.16030
H         10.48910        4.36170        1.31940
H          9.02790        5.22980        1.87730
H          8.41220        1.07420        0.85950
H          8.40070       -1.21950        0.84350
H          8.27510       -2.67720        2.22550
H          9.06180       -5.62340        2.20970
H          7.98560       -4.77650        3.39370
H          9.71060       -4.31650        3.16890
H          9.58200       -4.48850        0.00050
H         10.49490       -3.32730        1.03550
H          9.36190       -2.74570       -0.24040
H          7.40130       -5.97540        1.07810
H          5.50140       -6.76260        0.03800
H          3.92090       -5.31390       -0.86690
H          4.07280       -1.72020       -1.00990
H          2.66500       -4.24310       -2.15550
H          3.84830       -3.23050       -3.06630
H          2.26780       -2.59030       -2.50450
H          2.50010       -3.94080        0.45780
H          1.87960       -2.40530       -0.03500
H          3.18050       -2.43120        1.17510
