59

P          1.02880       -0.07280       -0.06220
C          0.51800        0.93880        1.54710
C         -0.30940        0.43050        2.63520
C         -0.73020        1.21160        3.71330
C         -0.34390        2.52900        3.81130
C          0.44630        3.06790        2.81390
C          0.83680        2.30620        1.70350
C          0.74870        0.62100       -1.70660
C          0.53200        2.00320       -1.84170
C          0.27430        2.56740       -3.09180
C          0.21230        1.75200       -4.22020
C          0.41280        0.37250       -4.09630
C          0.68680       -0.19260       -2.84410
C         -0.46910       -1.25580       -0.00510
C         -0.58600       -2.79430        0.35260
C         -1.85120       -3.02840        1.27880
C         -3.13120       -2.44850        0.63410
C         -2.95670       -0.94210        0.33550
C         -1.76330       -0.68860       -0.58150
Ag         3.48880       -0.07280       -0.06220
Br         3.48880        2.51620       -0.13530
C          3.48880       -2.22190       -0.00150
C          2.93990       -3.00680       -0.92560
N          5.58880       -0.07280       -0.06220
C          5.65330       -0.73720       -1.38500
N          6.21800        1.14570       -0.07720
C          7.43190        1.04140        0.31620
C          7.68310       -0.25280        0.75240
C          6.49080       -0.96220        0.57440
H         -0.71350       -0.55090        2.77260
H         -1.37330        0.78130        4.47420
H         -0.66260        3.12120        4.65880
H          0.74270        4.10670        2.88840
H          1.36660        2.85470        0.99730
H          0.55410        2.65930       -0.99150
H          0.11620        3.63570       -3.17810
H          0.00120        2.18880       -5.18610
H          0.34970       -0.25760       -4.97220
H          0.82090       -1.26080       -2.76220
H         -0.45970       -1.14330        0.99510
H          0.29330       -3.19150        0.90110
H         -0.72550       -3.40630       -0.56690
H         -1.70800       -2.52350        2.26370
H         -2.00880       -4.10200        1.51770
H         -3.98970       -2.56790        1.34430
H         -3.35410       -2.99730       -0.28690
H         -2.80170       -0.40040        1.30010
H         -3.87830       -0.55670       -0.13120
H         -1.68880        0.40730       -0.71310
H         -1.92900       -1.16840       -1.57020
H          3.93430       -2.68260        0.87390
H          2.46780       -2.59540       -1.80490
H          2.97310       -4.08510       -0.78970
H          4.99360       -0.19440       -2.09260
H          5.34700       -1.80210       -1.41280
H          6.67570       -0.71800       -1.83890
H          8.12120        1.87600        0.31270
H          8.61240       -0.62320        1.15480
H          6.32820       -2.00200        0.82950
