56

P          0.93040        0.05400       -0.04730
C          0.05390       -0.37010       -1.60850
C         -1.05200       -1.22700       -1.72320
C         -1.45480       -1.69210       -2.99380
C         -0.73660       -1.34990       -4.14570
C          0.33630       -0.47480       -4.04800
C          0.68990        0.04220       -2.80190
C          0.50190       -1.37560        1.02910
C          0.84300       -2.70510        0.68970
C          0.41200       -3.78060        1.49380
C         -0.36040       -3.54640        2.63320
C         -0.68820       -2.24080        2.98670
C         -0.25520       -1.16850        2.19970
C          0.19960        1.71040        0.22290
C          0.82510        2.91370       -0.18820
O          2.08880        2.88740       -0.68820
C          2.79830        4.00770       -1.08560
C          0.10990        4.13350       -0.07650
C         -1.17830        4.16810        0.45100
C         -1.78210        2.99440        0.87620
C         -1.11160        1.77850        0.74440
Ag         3.39040        0.05400       -0.04730
Br         3.24320        0.72930        2.35760
C          3.41000       -0.60410       -2.02700
C          4.17070        0.05390       -2.91860
N          5.49040        0.05400       -0.04730
C          6.25750       -0.53640       -1.03550
C          7.64970       -0.57840       -0.98810
C          8.31310       -0.02310        0.08790
C          7.57280        0.55870        1.10460
C          6.17420        0.58140        1.02530
H         -1.57960       -1.56150       -0.84510
H         -2.30110       -2.35910       -3.08840
H         -1.00330       -1.75970       -5.11420
H          0.91510       -0.21940       -4.93090
H          1.53390        0.71240       -2.77390
H          1.41720       -2.92230       -0.20140
H          0.65990       -4.80330        1.23200
H         -0.70760       -4.37240        3.24570
H         -1.28850       -2.05700        3.86970
H         -0.53190       -0.18010        2.51710
H          3.83390        3.71930       -1.34860
H          2.85080        4.74700       -0.25430
H          2.31660        4.48040       -1.96980
H          0.53250        5.07080       -0.40490
H         -1.71170        5.10780        0.52160
H         -2.78440        3.02560        1.28700
H         -1.64650        0.89290        1.04150
H          2.67420       -1.28030       -2.43510
H          4.78010        0.89880       -2.59440
H          4.11070       -0.15200       -3.98130
H          5.86000       -1.07580       -1.86160
H          8.20480       -1.06620       -1.78070
H          9.39360       -0.06160        0.13760
H          8.08080        0.98700        1.95840
H          5.67740        1.05370        1.84350
