58

P          1.06810        0.06910       -0.02440
C          0.57340        1.63390       -0.92890
C         -0.19520        2.64240       -0.30270
C         -0.54930        3.83050       -0.98020
C         -0.12210        4.05020       -2.28410
C          0.61090        3.07270       -2.93520
C          0.92630        1.87970       -2.27540
C          0.79160       -1.50590       -0.85010
C          0.21680       -1.56200       -2.12870
C          0.00390       -2.79740       -2.75090
C          0.35650       -3.98060       -2.09860
C          0.92650       -3.93090       -0.82320
C          1.14590       -2.69790       -0.20080
C         -0.04900        0.01390        1.44090
C         -1.54750        0.00870        1.30390
C         -2.22050       -1.01380        0.62070
C         -3.62030       -1.04060        0.59970
C         -4.35300       -0.04010        1.24600
C         -3.68930        0.98460        1.93090
C         -2.29600        1.00730        1.96130
Ag         3.52810        0.06910       -0.02440
Br         3.52810        0.05450       -2.61430
C          3.52810        0.08120        2.12560
C          4.51540        0.18160        3.02360
N          5.62810        0.06910       -0.02440
C          6.31910        0.90270       -0.86280
C          5.62200        2.05300       -1.53010
C          7.71800        0.85190       -0.92170
C          8.40260       -0.07880       -0.14660
C          7.69230       -0.91350        0.71140
C          6.30130       -0.80250        0.78140
H         -0.54100        2.54140        0.70370
H         -1.14980        4.58200       -0.48430
H         -0.37130        4.96880       -2.80300
H          0.93490        3.22800       -3.95870
H          1.41430        1.18020       -2.87620
H         -0.07050       -0.66060       -2.64820
H         -0.43560       -2.83730       -3.73810
H          0.18730       -4.93630       -2.57980
H          1.19660       -4.84770       -0.31500
H          1.58300       -2.67600        0.78920
H          0.25540        0.87680        2.07450
H          0.22790       -0.89210        2.01600
H         -1.67470       -1.80660        0.13900
H         -4.13210       -1.83120        0.08230
H         -5.43230       -0.06510        1.23790
H         -4.25650        1.74420        2.45080
H         -1.80360        1.79640        2.52440
H          2.53430        0.01120        2.54950
H          5.55820        0.29360        2.79230
H          4.25950        0.16200        4.07940
H          4.54920        2.09300       -1.24820
H          5.75660        2.04100       -2.62740
H          6.04510        3.00100       -1.12550
H          8.27220        1.55070       -1.53730
H          9.48230       -0.13760       -0.19410
H          8.21240       -1.65070        1.30920
H          5.75510       -1.49540        1.40710
