65

P          0.91450        0.04340        0.02830
C          0.37820        1.60370        0.93450
C         -0.48660        1.53940        2.05120
C         -0.94550        2.69760        2.70230
C         -0.55770        3.95590        2.26040
C          0.29270        4.06030        1.17140
C          0.75290        2.90480        0.51820
C          0.53210        0.03450       -1.75210
C          0.38460        1.22710       -2.48260
C          0.08930        1.20190       -3.84710
C         -0.09220       -0.01480       -4.50080
C          0.03130       -1.20930       -3.79020
C          0.35130       -1.18760       -2.42820
C         -0.28760       -1.17880        0.72330
C         -1.77620       -1.13870        0.76420
C         -2.57510       -0.21070        0.10370
C         -3.97120       -0.31070        0.21370
C         -4.55870       -1.32270        0.99080
C         -3.75610       -2.24440        1.65970
C         -2.37580       -2.15680        1.54050
Ag         3.37450        0.04340        0.02830
Br         3.37450        2.23150       -1.35740
C          3.37450       -1.77300        1.17860
C          2.50420       -2.72460        1.49700
C          5.52450        0.04340        0.02830
N          6.37000       -1.06340        0.09790
C          6.17770       -2.53510        0.00520
C          7.03470       -3.32050        1.01690
C          7.62880       -0.58030        0.06020
C          7.59630        0.76830        0.01020
N          6.31980        1.17570       -0.02570
C          6.03160        2.61510        0.04800
C          5.15370        2.91910        1.26870
H         -0.83620        0.61120        2.46520
H         -1.61510        2.61680        3.54810
H         -0.91650        4.84970        2.75120
H          0.58970        5.03790        0.80790
H          1.34210        3.11220       -0.31140
H          0.50130        2.18750       -2.02600
H         -0.00270        2.13100       -4.39560
H         -0.33060       -0.03060       -5.55630
H         -0.12020       -2.15360       -4.29620
H          0.44270       -2.13150       -1.91280
H          0.03960       -1.27250        1.78010
H         -0.10900       -2.13310        0.20630
H         -2.13210        0.56800       -0.50210
H         -4.59950        0.39270       -0.30460
H         -5.63340       -1.39780        1.07710
H         -4.19700       -3.02740        2.26670
H         -1.76510       -2.88760        2.06890
H          4.34160       -1.93540        1.62740
H          1.52870       -2.80440        1.12670
H          2.83310       -3.54340        2.13150
H          6.51330       -2.86610       -0.99890
H          5.14020       -2.87510        0.01320
H          8.11560       -3.20810        0.78180
H          6.81940       -4.40760        0.93460
H          6.86030       -2.98890        2.05990
H          8.53430       -1.16860        0.06140
H          8.46650        1.41340        0.00130
H          5.66110        2.99160       -0.90660
H          6.96860        3.20510        0.16420
H          4.24420        2.28290        1.28740
H          4.83920        3.98360        1.25310
H          5.71960        2.72390        2.20320
