94

P          1.27500        0.00000        0.00000
N          0.15250        1.41050       -0.21840
C          0.61360        2.65650        0.46620
C         -0.17280        3.89370       -0.02000
C          0.51050        2.60500        2.01570
C         -1.28490        1.21380       -0.09230
C         -1.57420       -0.19620        0.21890
C         -3.11720       -0.34420        0.33130
C         -1.09170       -1.00100       -0.99810
N          0.38370       -1.24440       -1.05450
C          0.48160       -2.74530       -0.75570
C         -0.06460       -3.59680       -1.95100
C          1.83730       -3.34970       -0.45430
N          0.66470       -0.35370        1.66170
C          1.28860       -1.55130        2.33430
C          2.81460       -1.46870        2.49950
C          0.70460       -1.86860        3.72810
C         -0.84230       -0.58190        1.56840
Ag         3.73500        0.00030       -0.00050
Br         3.73510        1.81550        1.84710
C          3.73490       -1.50650       -1.53410
C          2.88460       -1.44560       -2.57180
C          5.88500        0.00060       -0.00090
N          6.67160       -1.16690        0.02020
C          6.39740       -2.63080        0.37750
C          5.56210       -3.51330       -0.53800
C          5.30950       -5.00710       -0.35110
C          4.48330       -5.54890       -1.55160
C          7.96020       -0.70100        0.02480
C          7.95340        0.68010        0.06400
C          9.15340        1.41050        0.03540
C         10.37040        0.70800        0.00560
C         10.38080       -0.69230        0.03430
C          9.17560       -1.40940        0.05110
N          6.67910        1.13730        0.09100
C          6.37400        2.57880       -0.26000
C          5.90850        3.60360        0.79270
C          6.56880        3.40380        2.16740
C          5.84370        4.13400        3.30620
H          1.66940        2.83060        0.17520
H         -1.23080        3.88350        0.32060
H         -0.16320        3.95060       -1.12650
H          0.27840        4.81780        0.39730
H         -0.52740        2.45310        2.37180
H          0.87800        3.55570        2.45270
H          1.12220        1.81180        2.46810
H         -1.76500        1.53110       -1.04820
H         -1.74660        1.82430        0.70560
H         -3.60370       -0.06440       -0.63260
H         -3.53330        0.31290        1.12350
H         -3.40640       -1.39130        0.56080
H         -1.43650       -0.57340       -1.96430
H         -1.69830       -1.92860       -0.92480
H         -0.13460       -3.00180        0.13330
H          0.49890       -3.35410       -2.87650
H         -1.13740       -3.46270       -2.18130
H          0.05150       -4.68600       -1.75020
H          2.36380       -3.46310       -1.39110
H          1.72460       -4.38240       -0.05590
H          2.43560       -2.78810        0.25800
H          1.05010       -2.45060        1.77200
H          3.09880       -0.66930        3.20920
H          3.34030       -1.31530        1.55380
H          3.19590       -2.44070        2.88530
H          0.93120       -1.06410        4.45260
H          1.15170       -2.82230        4.09430
H         -0.38760       -2.05060        3.71630
H         -1.30960       -0.00670        2.39750
H         -1.11980       -1.64510        1.72450
H          4.59800       -1.97700       -1.90400
H          2.04250       -0.78210       -2.61330
H          3.05290       -2.07390       -3.44590
H          5.95360       -2.64910        1.39890
H          7.34080       -3.18610        0.48340
H          6.01170       -3.40630       -1.55150
H          4.55830       -3.18780       -0.29750
H          4.74370       -5.18940        0.59250
H          6.26990       -5.54140       -0.33320
H          3.48950       -5.10470       -1.65280
H          4.29170       -6.63340       -1.45330
H          4.99760       -5.34870       -2.51760
H          9.19580        2.47830        0.02820
H         11.30440        1.25890       -0.01280
H         11.32620       -1.21790        0.03110
H          9.24230       -2.48680        0.04300
H          5.71700        2.62310       -1.15580
H          7.29470        3.04550       -0.65160
H          4.81980        3.65650        0.77550
H          6.08790        4.64100        0.43520
H          7.61310        3.76230        2.08350
H          6.58410        2.32840        2.44610
H          5.65630        5.19920        3.06760
H          6.45700        4.06330        4.22860
H          4.87050        3.65190        3.54110
