62

C          0.91140       -0.66820       -0.01130
N         -0.29310       -0.98940       -0.53500
C         -0.63440       -2.24140       -1.21400
C         -1.15360       -1.97170       -2.62210
C         -1.10200        0.07580       -0.31070
C         -0.37100        1.05490        0.32470
N          0.88160        0.58900        0.52070
C          1.93390        1.33100        1.23130
C          3.14270        1.66890        0.35930
Ag         2.64860       -1.91270       -0.04360
Br         3.21960       -0.86920       -2.24470
C          2.23280       -2.76750        1.83160
C          1.09810       -3.42970        2.09000
P          4.69880       -3.25840       -0.03140
C          5.84350       -3.02100       -1.40240
C          6.39250       -1.74000       -1.53890
C          6.98990       -1.32220       -2.71520
C          7.07890       -2.19960       -3.78610
C          6.59780       -3.50720       -3.65730
C          5.97150       -3.92410       -2.47010
C          5.61110       -2.81350        1.48730
C          5.91540       -3.76540        2.48240
C          6.57810       -3.40850        3.65470
C          6.92850       -2.08160        3.87250
C          6.65260       -1.12990        2.90280
C          6.01410       -1.49520        1.72890
C          4.12410       -5.01940       -0.13000
C          4.88850       -6.06710        0.44080
C          4.45410       -7.38540        0.40890
C          3.29390       -7.70240       -0.27530
C          2.56790       -6.67890       -0.89570
O          1.57100       -6.95830       -1.53730
N          2.97940       -5.36200       -0.78970
H         -1.41770       -2.80100       -0.65910
H          0.27010       -2.88200       -1.27540
H         -2.06730       -1.34070       -2.57430
H         -1.41800       -2.93050       -3.11720
H         -0.37880       -1.45720       -3.22700
H         -2.14440        0.15760       -0.59240
H         -0.73250        2.03540        0.62660
H          2.30090        0.71120        2.06730
H          1.49540        2.26820        1.66350
H          3.61850        0.74290       -0.00570
H          3.86950        2.30040        0.92210
H          2.87150        2.24840       -0.52780
H          3.00840       -2.79370        2.59790
H          0.35020       -3.58960        1.32680
H          0.96640       -3.96780        3.03020
H          6.29800       -1.00790       -0.78990
H          7.33270       -0.29800       -2.81020
H          7.49900       -1.85570       -4.72150
H          6.66090       -4.17640       -4.50260
H          5.52560       -4.90580       -2.44350
H          5.63380       -4.77610        2.42640
H          6.79620       -4.15480        4.40750
H          7.40170       -1.77930        4.79310
H          6.91130       -0.09250        3.05830
H          5.81960       -0.69460        1.06760
H          5.83870       -5.92690        0.89960
H          5.04200       -8.16140        0.89240
H          2.98390       -8.73900       -0.33950
H          2.41770       -4.61600       -1.25160
