119

C          0.90100       -0.64300       -0.00200
N          0.45320        0.25920        1.12240
C          0.77290        0.83770        2.53750
C          2.07740        1.00790        2.79030
C          2.37180        2.19890        1.94950
C          2.68780        1.36450        3.97560
C          2.05650        2.26120        4.78180
C          3.01180        3.17250        5.57000
C          0.65110        2.34820        4.63830
C         -0.04890        1.59840        3.57910
C         -1.56590        1.84260        3.63540
C         -0.73810        0.71230        0.72620
C         -1.14260        0.14950       -0.38470
N         -0.29580       -0.79290       -0.80630
C         -0.74390       -1.46260       -2.06870
C         -2.11760       -1.62890       -2.56060
C         -3.42680       -1.28600       -1.86920
C         -2.33130       -2.07510       -3.89630
C         -1.26480       -2.36970       -4.74600
C         -1.41930       -2.69140       -6.19400
C          0.00890       -2.22980       -4.28230
C          0.22010       -1.74140       -3.01400
C          1.49090       -1.22030       -2.78720
Ag         2.65840       -1.88140       -0.01350
Br         1.17520       -3.98340       -0.31320
C          3.88970       -0.13650        0.23530
C          3.39790        1.04740       -0.15270
C          4.41590       -3.11990       -0.02500
N          5.71810       -2.43610       -0.34140
C          6.66720       -1.28570       -0.75730
C          8.14340       -1.25770       -0.31260
C          8.98670       -2.12550        0.71330
C          8.43630       -2.82800        1.98470
C          9.98350       -3.06200       -0.04620
C          9.05370       -0.37130       -0.93770
C          8.72630        0.50580       -1.93140
C          7.45190        0.58630       -2.34610
C          6.45750       -0.21350       -1.79960
C          5.17520        0.31890       -2.28080
C          4.72830        1.68360       -2.93030
C          4.22340       -0.73620       -2.60280
C          6.60160       -3.49260       -0.38360
C          6.26890       -4.68140       -0.10300
N          5.03180       -4.68010        0.10520
C          4.34280       -6.26410        0.11540
C          4.38390       -7.71440        0.16060
C          5.49240       -8.51660       -0.25190
C          5.73250       -9.49450        0.88920
C          5.05570       -9.15730       -1.63000
C          3.14750       -8.56900        0.42450
C          1.90650       -8.03590        0.54750
C          1.86810       -6.82410        0.05710
C          3.10910       -6.13930       -0.26490
C          3.15420       -5.14110       -0.80660
C          2.97190       -4.59700        1.23000
C          4.09380       -4.75930       -2.20910
H          1.61860        2.49370        1.14790
H          3.34060        1.82450        1.82820
H          2.75190        3.15640        2.35370
H          3.76740        1.36250        3.96030
H          4.07150        3.02270        5.22420
H          3.04950        3.01070        6.65690
H          2.87680        4.24610        5.29480
H          0.12630        3.04980        5.28990
H         -1.86770        2.44740        4.52860
H         -2.13350        0.89510        3.72140
H         -1.94860        2.47750        2.81540
H         -1.34760        1.43780        1.19630
H         -2.04780        0.47510       -0.85400
H         -3.39710       -1.01930       -0.80200
H         -4.12300       -2.14450       -1.92070
H         -3.89290       -0.44170       -2.43720
H         -3.33560       -2.14060       -4.29810
H         -2.48030       -2.70320       -6.50230
H         -0.92020       -3.65130       -6.44210
H         -0.90380       -1.87660       -6.75570
H          0.85360       -2.38810       -4.94860
H          1.86400       -0.69860       -3.69350
H          2.03730       -1.89640       -2.11010
H          1.34710       -0.22030       -2.32760
H          4.92890       -0.20770        0.48090
H          2.41480        1.22920       -0.54440
H          4.06510        1.92140       -0.08810
H          9.62320       -1.38270        1.24280
H          7.80690       -3.72030        1.84030
H          7.95070       -2.11510        2.68390
H          9.32480       -3.20620        2.55400
H          9.54680       -3.78280       -0.76240
H         10.57910       -3.67670        0.65470
H         10.68910       -2.46580       -0.65290
H         10.09500       -0.33580       -0.66210
H          9.45670        1.15420       -2.37960
H          7.23700        1.34480       -3.09820
H          5.23440        0.77080       -1.33720
H          4.73830        1.66400       -4.02830
H          5.25500        2.57190       -2.50930
H          3.65880        1.89790       -2.64900
H          4.11420       -0.92770       -3.68130
H          3.38490       -0.22040       -2.20210
H          4.28560       -1.65960       -2.03370
H          7.57460       -3.47250       -0.74800
H          6.87250       -5.60640       -0.15250
H          6.34450       -7.85350       -0.44970
H          4.87370      -10.15730        1.11230
H          5.87050       -8.88660        1.81090
H          6.56300      -10.15440        0.66010
H          4.15700       -9.82260       -1.57390
H          5.86720       -9.75120       -2.07450
H          4.76170       -8.36500       -2.37460
H          3.05220       -9.65210        0.41850
H          0.96180       -8.54660        0.78160
H          0.84300       -6.44040       -0.05920
H          2.39720       -5.36590       -1.70830
H          3.82360       -4.57480        1.97190
H          2.12930       -5.00730        1.85540
H          2.73170       -3.51110        1.48460
H          4.77600       -3.90700       -2.13940
H          3.63760       -4.12750       -3.00970
H          4.85310       -5.50940       -2.52110
