47

C          1.02400       -0.65300       -0.05500
N         -0.16420       -1.13960       -0.03360
C         -0.45910       -2.54050       -0.26670
C         -1.14700       -3.16250        0.94600
C         -1.14580       -0.09850        0.19990
C         -0.29180        1.15450        0.48100
N          1.05010        0.71880        0.17550
C          2.22780        1.57010        0.10760
C          2.52350        2.22300        1.45310
Ag         2.78020       -1.86970       -0.29550
Br         2.60430       -1.61540       -2.86700
C          2.92620       -2.08090        1.83910
C          3.68070       -1.91200        2.93540
N          4.49560       -3.05820       -0.53040
C          5.28350       -3.18730       -1.74530
C          5.18480       -2.47040       -3.05620
C          6.47970       -3.95100       -1.85170
C          7.00590       -4.62650       -0.83520
C          6.33270       -4.59820        0.32080
C          5.11180       -3.85450        0.49010
C          4.61160       -4.23220        1.83710
H          0.47140       -3.11030       -0.47210
H         -1.12520       -2.63030       -1.15360
H         -0.48780       -3.09740        1.83790
H         -1.36440       -4.23070        0.73630
H         -2.10730       -2.65180        1.16260
H         -1.80960       -0.32640        1.05430
H         -1.73430        0.02080       -0.73150
H         -0.33920        1.43660        1.55770
H         -0.62210        2.00640       -0.15690
H          2.04350        2.36140       -0.65050
H          3.10980        0.96900       -0.20340
H          1.66970        2.84890        1.78690
H          3.41560        2.87620        1.34510
H          2.73450        1.44370        2.21290
H          1.90590       -2.28890        2.14950
H          4.70030       -1.57000        2.96360
H          3.19280       -2.12390        3.89740
H          5.12120       -1.38260       -2.85880
H          4.46940       -3.03020       -3.69770
H          6.07150       -2.48980       -3.72600
H          7.07710       -4.02160       -2.76110
H          7.92350       -5.19660       -0.92900
H          6.78360       -5.18040        1.11020
H          4.98470       -5.19860        2.25570
H          3.52340       -4.42000        1.81380
H          5.19410       -3.60690        2.51180
