65

C          0.90100       -0.64300       -0.00200
N         -0.42040       -1.06480       -0.31700
C         -1.23880       -2.26540       -0.64310
C         -0.86620       -3.54500       -0.17250
C          0.49150       -3.80020        0.27320
C         -1.80780       -4.56290        0.01130
C         -3.14100       -4.35460       -0.29950
C         -4.16920       -5.35130        0.14490
C         -3.50010       -3.20620       -0.99230
C         -2.57800       -2.17070       -1.22420
C         -3.10340       -1.03560       -2.11630
C         -1.17460        0.01080       -0.01310
C         -0.44110        1.03380        0.37930
N          0.84490        0.69070        0.42240
C          1.70210        1.82220        0.78520
C          1.35970        2.71960        1.85460
C          0.31570        2.44400        2.93320
C          1.97250        3.97780        1.94490
C          2.89290        4.38650        0.97980
C          3.41510        5.78950        0.95860
C          3.27280        3.50080       -0.02260
C          2.68400        2.23700       -0.12330
C          3.02730        1.38080       -1.25650
Ag         2.65840       -1.88140       -0.01350
Br         2.99900       -1.37480       -2.53050
C          2.37580       -2.30200        2.07590
C          1.36580       -1.77540        2.79990
N          4.37500       -3.09110       -0.02470
C          4.84730       -3.91570        1.02970
F          4.29500       -4.13590        2.21040
C          6.01890       -4.69060        0.98440
C          6.78030       -4.75450       -0.13840
F          7.89430       -5.52690       -0.19220
C          6.37710       -4.02590       -1.20950
C          5.23670       -3.21130       -1.14720
F          5.13340       -2.61020       -2.32500
H          1.20720       -3.58060       -0.54800
H          0.67460       -4.81330        0.68020
H          0.50430       -3.11500        1.07230
H         -1.51370       -5.48510        0.49660
H         -4.05790       -5.49010        1.24700
H         -4.03700       -6.32550       -0.35680
H         -5.19890       -4.96540       -0.01310
H         -4.52980       -3.10490       -1.31670
H         -4.12600       -1.26440       -2.49780
H         -2.45900       -0.97620       -3.01780
H         -3.21340       -0.01460       -1.72650
H         -2.24130        0.08160       -0.00060
H         -0.86900        1.99370        0.63760
H         -0.15180        1.44430        2.86800
H         -0.48900        3.21320        2.86420
H          0.77450        2.52210        3.94070
H          1.67850        4.66950        2.72580
H          3.00570        6.39260        1.79530
H          3.07600        6.26140        0.00910
H          4.52100        5.79800        0.99440
H          3.98240        3.82360       -0.77600
H          3.44220        0.46640       -0.79390
H          2.09940        1.18980       -1.84000
H          3.78340        1.82130       -1.93440
H          2.94730       -2.81940        2.76740
H          0.59990       -1.13650        2.39520
H          1.28570       -1.99050        3.86500
H          6.33070       -5.27090        1.84650
H          6.96370       -4.08290       -2.12070
