88

P         -1.35000        0.00100        0.79800
N          0.11540        1.04980        0.94660
C          0.70590        0.92830        2.29810
C          1.20830        1.20110       -0.03800
C          0.82390        1.01520       -1.47750
N          0.21260       -0.29310       -1.79220
C          0.54650       -1.65010       -1.27250
C          0.69840       -1.81840        0.26000
N         -0.48040       -1.52310        1.12430
C         -1.38100       -2.66630        1.23310
N         -2.00560        0.73310       -0.71980
C         -3.15960        1.60270       -0.49840
C         -2.18010       -0.21850       -1.84750
C         -0.91680       -0.21380       -2.69990
Ag        -3.32260        0.00260        2.26790
Br        -4.43190       -1.80490        0.78110
C         -2.40170        1.50300        3.50210
C         -2.03350        2.68710        3.01790
P         -5.29520        0.00420        3.73770
C         -6.31580        1.61660        3.45790
C         -6.81030        1.70810        1.98670
C         -7.55290        1.80780        4.36240
C         -5.38940        2.86570        3.54740
C         -6.52250       -1.44550        3.39750
C         -5.69990       -2.76030        3.58450
C         -7.61120       -1.58120        4.49260
C         -7.30310       -1.45790        2.04770
C         -4.53240        0.25080        5.38900
C         -4.77860        1.27700        6.31940
C         -4.16670        1.27890        7.57860
C         -3.29250        0.24290        7.99690
N         -2.65710        0.24590        9.30420
C         -2.79910        1.33690       10.27120
C         -1.79810       -0.83320        9.78340
C         -3.07680       -0.79400        7.05130
C         -3.68110       -0.78180        5.79390
H         -0.04330        0.69350        3.07450
H          1.21070        1.87510        2.58230
H          1.45360        0.10970        2.35070
H          2.10470        0.58990        0.17930
H          1.59190        2.24210        0.06530
H          1.69710        1.21110       -2.13430
H          0.09560        1.84270       -1.67460
H          1.47400       -1.99760       -1.76830
H         -0.25280       -2.36160       -1.57460
H          1.58360       -1.29990        0.63620
H          1.00980       -2.87210        0.42530
H         -0.81980       -3.57270        1.54330
H         -1.87810       -2.87110        0.26410
H         -2.10820       -2.48090        2.04920
H         -3.89440        1.13220        0.17840
H         -3.66790        1.85030       -1.45900
H         -2.80820        2.57350       -0.10610
H         -2.38970       -1.23670       -1.47470
H         -2.99780        0.06690       -2.54840
H         -0.85440        0.72100       -3.30320
H         -0.90040       -1.03660       -3.45050
H         -2.19380        1.28020        4.54170
H         -2.20730        2.93300        1.98270
H         -1.55360        3.41640        3.66130
H         -7.62420        1.03290        1.73510
H         -5.97570        1.54280        1.27270
H         -7.25130        2.70590        1.76880
H         -8.37830        1.15560        4.05010
H         -7.97450        2.82680        4.22580
H         -7.36690        1.65250        5.43610
H         -4.61710        2.81310        2.75880
H         -4.85720        3.05890        4.48180
H         -5.96840        3.79530        3.34670
H         -5.38920       -2.87030        4.64520
H         -4.75750       -2.82720        3.03910
H         -6.30750       -3.65200        3.32940
H         -7.15920       -1.57320        5.50480
H         -8.16980       -2.53550        4.36770
H         -8.39110       -0.81380        4.46400
H         -6.78070       -1.06260        1.17140
H         -8.23870       -0.86490        2.12720
H         -7.67580       -2.47400        1.81650
H         -5.45060        2.08700        6.14960
H         -4.43010        2.11240        8.20240
H         -3.42340        2.17740        9.94870
H         -1.79790        1.76040       10.49910
H         -3.24570        0.94440       11.20700
H         -1.67900       -1.68450        9.10290
H         -2.20600       -1.24410       10.72910
H         -0.78120       -0.43200        9.98230
H         -2.45090       -1.64480        7.23930
H         -3.48040       -1.61050        5.12470
