71

P         -1.35000        0.00100        0.79800
N         -0.39650        1.47120        0.32830
C         -0.14610        2.28080        1.53090
C          0.78180        1.56240       -0.56170
C          0.65950        0.76420       -1.81880
N          0.37480       -0.65270       -1.55660
C          1.08570       -1.56980       -0.63200
C          1.17230       -1.13670        0.86710
N         -0.09640       -0.94050        1.62790
C         -0.66890       -2.21310        2.07200
N         -2.21690       -0.27530       -0.76230
C         -2.95400        0.83480       -1.38130
C         -1.87850       -1.44230       -1.61560
C         -0.62170       -1.23390       -2.44380
Ag        -3.32260        0.00260        2.26790
Br        -1.95770        0.91670        4.12480
C         -4.75290       -0.29940        0.78950
C         -4.83400       -1.36490        0.00400
C         -5.04660        0.00400        3.55250
N         -5.53810       -1.05280        4.07500
C         -5.07740       -2.41350        3.82240
C         -4.53610       -3.05150        5.10900
C         -6.20840       -3.27280        3.24480
C         -6.63590       -0.73520        4.98190
C         -6.63570        0.79580        5.04600
N         -5.67710        1.16900        4.03620
C         -5.53310        2.50160        3.46930
C         -6.86150        2.95130        2.82520
C         -5.10560        3.50610        4.53660
H         -1.09330        2.48270        2.06550
H          0.26050        3.28150        1.26740
H          0.57790        1.77120        2.20560
H          1.74230        1.38790       -0.06090
H          0.87020        2.62530       -0.88800
H          1.54420        0.89220       -2.47470
H         -0.18990        1.23740       -2.35670
H          2.10870       -1.74460       -1.02520
H          0.58090       -2.55870       -0.63760
H          1.82300       -0.27260        1.02020
H          1.77180       -1.92110        1.37470
H          0.08360       -2.79050        2.65060
H         -1.01340       -2.82420        1.21300
H         -1.52140       -2.02240        2.75760
H         -3.38460        1.49760       -0.60450
H         -3.79980        0.42410       -1.97800
H         -2.32830        1.43490       -2.06190
H         -1.73020       -2.32320       -0.96580
H         -2.70690       -1.68850       -2.31610
H         -0.83480       -0.56540       -3.31110
H         -0.25910       -2.18380       -2.89910
H         -5.48320        0.49820        0.66890
H         -4.11960       -2.16920        0.08920
H         -5.61960       -1.40270       -0.74670
H         -4.24410       -2.39150        3.07800
H         -5.32270       -3.11550        5.89130
H         -3.68700       -2.45540        5.50820
H         -4.17700       -4.08220        4.91100
H         -7.04750       -3.35290        3.96930
H         -5.84270       -4.29810        3.02880
H         -6.58580       -2.82180        2.30420
H         -6.48900       -1.15000        5.99650
H         -7.57980       -1.11060        4.53970
H         -6.26790        1.17130        6.02720
H         -7.65850        1.16580        4.84010
H         -4.76360        2.47950        2.66640
H         -7.67610        3.02880        3.57640
H         -7.17760        2.23090        2.04010
H         -6.75210        3.95090        2.35310
H         -5.86920        3.57000        5.34170
H         -4.99020        4.51360        4.08190
H         -4.13560        3.19870        4.97610
