61

C          0.90100       -0.64300       -0.00200
N         -0.10170       -0.60540       -0.94000
C         -0.28350       -1.28790       -2.24180
C         -1.53150       -2.19900       -2.23700
C         -0.48840       -0.23570       -3.36390
C         -0.99850        0.29910       -0.48890
C         -0.56120        0.82180        0.68900
N          0.61170        0.23460        1.00660
C          1.33310        0.48370        2.25960
C          1.76350        1.95050        2.36840
C          0.42100        0.12860        3.44970
Ag         2.65840       -1.88140       -0.01350
Br         3.91200       -0.08960       -1.40130
C          1.61780       -3.36890        1.13850
C          0.28540       -3.36980        1.20300
C          4.41590       -3.11990       -0.02500
N          4.51630       -4.48740        0.38170
C          3.70850       -5.64430        0.93600
C          3.09120       -6.48180       -0.15750
C          4.37440       -6.39890        2.11050
C          5.80130       -4.83930        0.18650
C          6.50210       -3.81660       -0.27860
N          5.71860       -2.74350       -0.42570
C          6.45880       -1.58120       -0.96630
C          6.26220       -1.49230       -2.50590
C          6.43790       -0.37690        0.00730
H          0.60440       -1.90420       -2.48990
H         -2.44440       -1.63570       -1.94160
H         -1.39960       -3.05490       -1.54820
H         -1.71580       -2.61240       -3.25500
H         -1.40410        0.37410       -3.18850
H         -0.62670       -0.72470       -4.35270
H          0.37590        0.45430       -3.42500
H         -1.91640        0.58630       -0.98650
H         -1.07270        1.56020        1.28510
H          2.23010       -0.16550        2.30650
H          0.88020        2.63640        2.33880
H          2.44510        2.23060        1.53810
H          2.28530        2.13270        3.33230
H         -0.46420        0.83390        3.47130
H          0.94480        0.23740        4.40980
H          0.01520       -0.88920        3.33920
H          2.10390       -3.88840        1.86330
H         -0.29180       -2.77700        0.51010
H         -0.25430       -4.01730        1.88080
H          2.86730       -5.43100        1.44340
H          3.85970       -7.06010       -0.68900
H          2.55110       -5.79870       -0.85090
H          2.33190       -7.16280        0.29650
H          5.22190       -7.03470        1.80280
H          3.63340       -7.06800        2.60850
H          4.71760       -5.67370        2.88850
H          6.24470       -5.80930        0.35900
H          7.56500       -3.88760       -0.51180
H          7.56400       -1.75400       -0.98840
H          5.22910       -1.61070       -2.87530
H          6.76150       -2.36800       -2.97650
H          6.72620       -0.57380       -2.92070
H          5.48460       -0.26530        0.56050
H          6.71110        0.56030       -0.52100
H          7.16690       -0.54240        0.82730
