35

C          1.02400       -0.65300       -0.05500
N          1.01310        0.61510       -0.24020
C          2.18130        1.41530       -0.54200
C         -0.29950        1.17490       -0.01350
C         -1.18970       -0.05520        0.23870
N         -0.23960       -1.13440        0.32590
C         -0.57850       -2.51290        0.58560
Ag         2.78020       -1.86970       -0.29550
Br         2.62230       -2.58850        2.18780
C          2.91130       -1.27310       -2.35690
C          1.99540       -0.55020       -3.01350
N          4.49560       -3.05820       -0.53040
C          5.46070       -2.88550       -1.52730
Cl         5.81820       -1.35060       -2.35050
C          6.54230       -3.75580       -1.67560
C          6.67200       -4.84550       -0.84360
C          5.76790       -5.00510        0.18830
C          4.72470       -4.08470        0.35900
H          3.09700        0.79030       -0.61080
H          2.33850        2.15620        0.27010
H          2.03270        1.95930       -1.49780
H         -0.66040        1.76470       -0.88330
H         -0.24690        1.81580        0.89350
H         -1.84850       -0.25500       -0.63530
H         -1.79100        0.06220        1.16510
H         -1.67210       -2.61570        0.75070
H         -0.06460       -2.86500        1.49930
H         -0.28310       -3.14420       -0.27800
H          3.63180       -1.65510       -3.03410
H          1.11040       -0.14180       -2.56040
H          2.12220       -0.36320       -4.07670
H          7.31610       -3.55750       -2.41060
H          7.50080       -5.52840       -0.97260
H          5.86800       -5.85130        0.85460
H          4.04740       -4.33360        1.14150
