36

C          0.90100       -0.64300       -0.00200
N         -0.36300       -1.09960       -0.10020
C         -0.79440       -2.49110       -0.23120
C         -1.63370       -2.92270        0.96880
C         -1.15590       -0.00950       -0.04470
C         -0.35250        1.10780        0.06500
N          0.93450        0.70010        0.09280
C          2.12580        1.54510        0.14750
C          2.15390        2.39240        1.41280
Ag         2.65840       -1.88140       -0.01350
Br         2.50640       -1.75550       -2.49340
C          2.59800       -1.85970        2.11050
C          1.67940       -1.24280        2.86130
O          4.33420       -3.06230       -0.02450
C          4.96150       -3.44210       -1.12270
N          5.99740       -4.26040       -0.85930
C          5.99180       -4.38390        0.47600
C          4.96820       -3.62430        0.98940
H          0.09200       -3.15810       -0.30200
H         -1.39240       -2.59940       -1.16180
H         -1.03330       -2.85030        1.90070
H         -1.95860       -3.97630        0.83520
H         -2.53850       -2.28650        1.06850
H         -2.23760       -0.01970       -0.09650
H         -0.67960        2.13730        0.11720
H          2.13050        2.21680       -0.73900
H          3.03970        0.91390        0.10930
H          1.26890        3.06210        1.45140
H          3.06980        3.02100        1.41220
H          2.16360        1.73950        2.30940
H          3.33620       -2.36360        2.69400
H          0.85100       -0.68200        2.46200
H          1.75520       -1.30150        3.94380
H          4.70940       -3.15310       -2.12640
H          6.67640       -5.00480        1.03860
H          4.75170       -3.59730        2.03460
