57

P          0.90320       -0.00030       -0.02510
C          0.05780        1.21300       -1.23110
C         -1.45740        1.28560       -1.47590
C          0.51000        2.67710       -0.99830
C          0.49960       -1.73070       -0.62500
C         -1.00750       -2.06810       -0.69900
C          1.13410       -2.07260       -1.96800
C          0.40770        0.53920        1.71290
C          0.80480        1.96010        2.12550
C         -1.11280        0.38030        2.00220
Ag         3.36320       -0.00030       -0.02510
Br         3.36320       -1.80380        1.83380
C          3.36320        1.49680       -1.56810
C          2.97560        1.28830       -2.82470
N          5.46320       -0.00030       -0.02510
C          6.19660       -0.47920        1.02340
C          7.59050       -0.31050        1.07440
C          8.29220        0.28560       -0.00390
N          9.73600        0.50410        0.02520
C         10.52360        0.41730        1.24570
C         10.50080        0.90020       -1.15300
C          7.51960        0.67160       -1.09990
C          6.13410        0.56720       -1.07260
H          0.49060        0.91020       -2.20190
H         -2.01660        1.66010       -0.60570
H         -1.90550        0.37290       -1.86320
H         -1.63660        2.02940       -2.28690
H         -0.13590        3.20680       -0.28170
H          0.42110        3.25920       -1.94050
H          1.54200        2.78280       -0.63400
H          0.92100       -2.41960        0.13590
H         -1.51510       -1.57050       -1.53150
H         -1.55180       -1.86960        0.23330
H         -1.14860       -3.15000       -0.90110
H          0.75770       -1.40160       -2.76620
H          0.86760       -3.11890       -2.24520
H          2.23670       -2.00950       -1.89530
H          0.92480       -0.15520        2.39440
H          0.15070        2.72270        1.67860
H          1.87060        2.15270        1.90860
H          0.63090        2.07430        3.21820
H         -1.73710        1.03100        1.36900
H         -1.34400        0.66460        3.04940
H         -1.45270       -0.65990        1.90740
H          3.72390        2.48240       -1.28930
H          2.61490        0.32170       -3.14850
H          3.01640        2.11110       -3.53410
H          5.73720       -0.87590        1.90390
H          8.07340       -0.64360        1.97560
H          9.95280        0.18250        2.15120
H         11.01050        1.39780        1.43980
H         11.31620       -0.35340        1.12450
H          9.93880        0.93740       -2.09870
H         11.31920        0.16540       -1.32400
H         10.95140        1.89860       -0.98730
H          7.91900        1.11710       -1.99530
H          5.61980        0.89650       -1.95810
