33

C          1.02400       -0.65300       -0.05500
N          1.04730        0.62510       -0.09040
C          2.24810        1.42200       -0.19410
C         -0.27500        1.18520        0.07500
C         -1.20110       -0.04290        0.04730
N         -0.27780       -1.14450        0.13780
C         -0.64850       -2.52840        0.30270
Ag         2.78020       -1.86970       -0.29550
Br         3.16270       -1.82390        2.26570
C          2.46270       -1.90780       -2.42160
C          1.43040       -1.32940       -3.04340
O          4.45470       -3.02990       -0.52480
C          5.13010       -3.28820       -1.63850
C          6.19020       -4.12160       -1.36420
C          6.15890       -4.34920       -0.01620
C          5.06770       -3.66090        0.46450
H          3.15450        0.78230       -0.26260
H          2.33910        2.05780        0.71410
H          2.19070        2.07850       -1.08560
H         -0.54040        1.90710       -0.72630
H         -0.30840        1.68240        1.06950
H         -1.72600       -0.13240       -0.93020
H         -1.93060       -0.01110        0.88440
H         -1.75470       -2.62170        0.36640
H         -0.21390       -2.91310        1.24980
H         -0.28060       -3.13020       -0.55160
H          3.12050       -2.40010       -3.10140
H          0.66450       -0.76900       -2.53240
H          1.35580       -1.40340       -4.12590
H          4.95700       -2.94390       -2.63210
H          6.90850       -4.50970       -2.07330
H          6.85580       -4.95110        0.55390
H          4.79790       -3.66480        1.50210
