77

P         -1.35000        0.00100        0.79800
N         -0.99150        1.18000       -0.54800
C         -1.10050        2.57310       -0.07830
C          0.05310        1.16020       -1.60550
C          0.49800       -0.18740       -2.05490
N          1.04600       -1.00090       -0.95970
C          1.91440       -0.55840        0.15890
C          1.39170        0.59490        1.07060
N          0.09350        0.42880        1.79510
C          0.27860       -0.42320        2.97510
N         -1.49880       -1.46720       -0.24700
C         -2.83020       -1.96400       -0.56520
C         -0.50690       -2.55300       -0.00860
C          0.63790       -2.40140       -0.98760
Ag        -3.32260        0.00260        2.26790
Br        -2.41930       -2.09910        3.48240
C         -4.07240        1.74720        1.25970
C         -4.01110        3.07740        1.42900
P         -5.29520        0.00420        3.73770
N         -5.56620       -1.18950        5.09120
C         -4.39120       -1.14800        5.99510
C         -6.75050       -1.32180        5.99100
C         -8.07450       -1.06390        5.35460
N         -8.05500        0.19200        4.59890
C         -7.76510        1.54030        5.10040
C         -6.37350        1.70210        5.74000
N         -5.18500        1.39310        4.88500
C         -4.67920        2.58850        4.26160
N         -6.43120       -0.14730        2.30580
C         -5.80780       -1.11370        1.37010
C         -7.84560       -0.63390        2.40340
C         -8.75220        0.13500        3.32690
H         -1.79190        2.66290        0.74510
H         -1.42080        3.24290       -0.90450
H         -0.15650        2.95940        0.34380
H          0.94490        1.76800       -1.37040
H         -0.37260        1.67550       -2.49830
H          1.24760       -0.08180       -2.86650
H         -0.40690       -0.66540       -2.50120
H          2.89200       -0.24490       -0.26690
H          2.12790       -1.42380        0.81950
H          1.41680        1.55910        0.57270
H          2.19900        0.77270        1.81430
H          1.17210       -0.11390        3.55430
H          0.43650       -1.48410        2.71690
H         -0.55980       -0.27860        3.67340
H         -3.28720       -2.44960        0.31950
H         -2.73940       -2.73370       -1.36930
H         -3.45350       -1.14870       -0.97570
H         -0.11520       -2.51920        1.01080
H         -0.92270       -3.57610       -0.15050
H          0.29730       -2.68340       -2.01170
H          1.49600       -3.07420       -0.76720
H         -4.64270        1.44830        0.38600
H         -3.47240        3.58140        2.21510
H         -4.52710        3.71240        0.71220
H         -3.45230       -0.88050        5.48780
H         -4.25410       -2.12340        6.50930
H         -4.48890       -0.35450        6.76970
H         -6.68090       -0.72470        6.90910
H         -6.75670       -2.35790        6.39700
H         -8.89490       -1.09200        6.10210
H         -8.24000       -1.93930        4.69660
H         -8.56620        1.86160        5.79380
H         -7.74780        2.25930        4.25210
H         -6.28820        1.20410        6.70870
H         -6.33530        2.76050        6.08810
H         -4.54400        3.40450        5.00320
H         -5.40850        2.93400        3.49990
H         -3.66080        2.35370        3.90340
H         -4.82330       -0.78640        1.04100
H         -6.40500       -1.21420        0.43950
H         -5.72060       -2.11440        1.84820
H         -7.86270       -1.71530        2.65720
H         -8.33930       -0.55980        1.40560
H         -9.72730       -0.39590        3.43410
H         -8.97970        1.13470        2.91930
