48

C          0.90100       -0.64300       -0.00200
N         -0.36670       -1.12050       -0.02790
C         -0.81540       -2.51840       -0.09550
C         -1.61170       -2.88480        1.16410
C         -1.68340       -2.73070       -1.34730
C         -1.17180       -0.03820        0.02070
C         -0.39550        1.08750        0.07220
N          0.90240        0.71370        0.05670
C          2.04670        1.63330        0.10240
C          2.00870        2.59110       -1.10110
C          2.01820        2.43820        1.41040
Ag         2.65840       -1.88140       -0.01350
Br         2.63130       -1.89590       -2.60330
C          2.68100       -1.86940        2.13630
C          1.80280       -1.22860        2.91150
N          4.37500       -3.09110       -0.02470
C          5.49960       -2.76490       -0.73220
C          5.64330       -1.41700       -1.36800
C          6.58810       -3.64990       -0.76180
C          6.50730       -4.86290       -0.07920
C          5.36350       -5.16620        0.65530
C          4.31040       -4.25100        0.68810
H          0.06460       -3.19380       -0.16000
H         -2.49100       -2.21590        1.28730
H         -0.96390       -2.79050        2.06040
H         -1.97550       -3.93220        1.10020
H         -2.58740       -2.08390       -1.31670
H         -2.01850       -3.78780       -1.41180
H         -1.10350       -2.48530       -2.26080
H         -2.25830       -0.06630        0.01810
H         -0.75540        2.10810        0.11440
H          2.99490        1.05510        0.06380
H          1.07600        3.19620       -1.09850
H          2.05580        2.01530       -2.04850
H          2.87050        3.29070       -1.06570
H          1.07600        3.02310        1.49740
H          2.87060        3.14890        1.44770
H          2.09130        1.75380        2.27960
H          3.47040       -2.42910        2.62620
H          0.98460       -0.64900        2.51260
H          1.90150       -1.28520        3.99080
H          4.75310       -0.78470       -1.17710
H          5.83290       -1.50750       -2.45540
H          6.50600       -0.89640       -0.89360
H          7.49500       -3.39570       -1.29670
H          7.33500       -5.55990       -0.10700
H          5.28730       -6.10650        1.18610
H          3.40800       -4.49740        1.23140
