73

C          1.02400       -0.65300       -0.05500
N          0.36520       -0.48300        1.05940
C          0.65390       -0.96160        2.38810
C         -0.77750        0.38200        0.86730
C         -0.55050        1.01630       -0.48470
N          0.42690        0.14280       -1.07780
C          0.58270        0.01910       -2.50860
Ag         2.78020       -1.86970       -0.29550
Br         1.82210       -3.52140        1.40280
C          3.40940       -0.01240       -1.05520
C          4.29960        0.17730       -2.01790
C          4.53640       -3.08650       -0.53600
N          4.56840       -4.42520       -0.51420
C          3.51770       -5.49650       -0.38930
C          2.10070       -5.34730       -0.73720
C          1.47110       -4.20150       -1.50850
C          1.15490       -6.32960       -0.31770
C          1.54310       -7.49580        0.32470
C          0.57150       -8.49980        0.89430
C          2.88090       -7.76800        0.42690
C          3.88000       -6.84490        0.05530
C          5.25920       -7.45110        0.16010
C          5.94520       -4.81630       -0.72380
C          6.63400       -3.62630       -1.30590
N          5.83240       -2.54730       -0.85160
C          6.36830       -1.22420       -0.60900
C          7.33310       -0.65000       -1.51370
C          7.97860       -1.35400       -2.69240
C          7.64400        0.70890       -1.41400
C          7.09250        1.51700       -0.42880
C          7.31960        3.00100       -0.45290
C          6.29990        0.94180        0.55760
C          5.93830       -0.41750        0.50620
C          5.11820       -0.94350        1.66610
H          1.70060       -1.27400        2.51180
H         -0.10230       -1.71780        2.69810
H          0.58220       -0.11460        3.10670
H         -0.87940        1.16780        1.65310
H         -1.68670       -0.26900        0.87660
H         -0.05470        2.00440       -0.34250
H         -1.50210        1.12340       -1.04810
H         -0.09660        0.73620       -3.02110
H          0.28990       -1.00410       -2.81940
H          1.60990        0.24480       -2.83370
H          2.97130        0.88230       -0.61490
H          4.76630       -0.65940       -2.51150
H          4.57250        1.19250       -2.29420
H          2.20360       -3.45120       -1.84660
H          0.65260       -3.70620       -0.93870
H          0.96400       -4.61700       -2.40780
H          0.09250       -6.16500       -0.47500
H         -0.48280       -8.17340        0.80140
H          0.78930       -8.61680        1.98370
H          0.70170       -9.49280        0.41740
H          3.15510       -8.73910        0.83160
H          5.26170       -8.51470        0.48030
H          5.91450       -6.93910        0.87560
H          5.68910       -7.53370       -0.86110
H          6.07100       -5.61130       -1.48890
H          6.39320       -5.01270        0.26540
H          6.53700       -3.65650       -2.41440
H          7.67940       -3.62980       -0.93080
H          8.40490       -2.34160       -2.46260
H          8.90780       -0.82230       -2.98890
H          7.29110       -1.37690       -3.55960
H          8.29200        1.16720       -2.15350
H          7.90620        3.30400       -1.35030
H          7.83900        3.34740        0.45950
H          6.32910        3.49690       -0.53310
H          5.93030        1.57510        1.35580
H          4.88850       -0.14240        2.40520
H          5.70600       -1.70960        2.21740
H          4.15440       -1.37100        1.36370
