73

C          0.90100       -0.64300       -0.00200
N         -0.38390       -1.18810       -0.03290
C         -0.93050       -2.62170       -0.00480
C         -0.09760       -3.82040       -0.01400
C          1.34600       -3.85780       -0.15580
C         -0.60200       -5.12370        0.03670
C         -1.93830       -5.37700        0.08330
C         -2.41440       -6.80340        0.12550
C         -2.80980       -4.30370        0.06640
C         -2.36050       -2.95320        0.02410
C         -3.49630       -1.96980       -0.01280
C         -1.14170       -0.06730       -0.03530
C         -0.36800        1.05280       -0.01610
N          0.94500        0.75500        0.01030
C          2.08690        1.78460        0.01480
C          1.90600        3.25760        0.03940
C          0.66110        4.13640        0.08830
C          3.03250        4.13360        0.02470
C          4.33320        3.68320       -0.00040
C          5.53170        4.59140       -0.00720
C          4.54960        2.34610       -0.01320
C          3.50350        1.41940       -0.00640
C          4.05700        0.07190       -0.01060
Ag         2.65840       -1.88140       -0.01350
Br         2.63900       -1.88500       -2.60340
C          2.67460       -1.87850        2.13640
C          1.68010       -1.40210        2.89100
N          4.37500       -3.09110       -0.02470
C          4.97260       -3.76690        0.98730
N          6.03320       -4.49320        0.55920
C          6.85280       -5.41040        1.32770
C          6.54570       -5.70550        2.67540
C          7.31670       -6.61920        3.40070
C          8.41060       -7.24580        2.80440
C          8.73450       -6.96340        1.47890
C          7.96570       -6.05530        0.74480
C          6.13380       -4.23150       -0.75850
C          5.10700       -3.39600       -1.11700
H          1.45440       -3.17850       -0.95540
H          1.76020       -4.77850       -0.62430
H          1.84450       -3.72160        0.81050
H          0.07340       -5.97680        0.03110
H         -1.56120       -7.52190        0.13830
H         -3.02090       -7.02320       -0.77500
H         -3.01080       -6.97760        1.04260
H         -3.86600       -4.54010        0.08330
H         -4.49590       -2.45450       -0.01710
H         -3.45600       -1.39700       -0.96290
H         -3.48330       -1.33860        0.89860
H         -2.19740        0.03170       -0.04120
H         -0.85080        1.97020       -0.03700
H         -0.35230        3.78760        0.15370
H          0.66240        4.79270       -0.81070
H          0.73550        4.78990        0.98580
H          2.90000        5.21120        0.03950
H          5.24840        5.66150        0.00480
H          6.14120        4.38920       -0.91570
H          6.16160        4.37580        0.88450
H          5.58940        2.02780       -0.02600
H          5.16240       -0.04050       -0.01730
H          3.73020       -0.38650       -0.92620
H          3.78150       -0.31350        0.94490
H          3.52830       -2.23030        2.68440
H          0.77520       -0.98690        2.47650
H          1.78000       -1.40720        3.97230
H          4.61840       -3.79950        1.99450
H          5.70200       -5.25840        3.17780
H          7.06280       -6.84520        4.42940
H          9.00510       -7.95310        3.36850
H          9.58060       -7.45300        1.01440
H          8.24840       -5.87460       -0.28040
H          6.87370       -4.62830       -1.43800
H          4.94900       -3.03250       -2.11600
