45

C          0.90100       -0.64300       -0.00200
N         -0.40140       -1.03750        0.11510
C         -1.01270       -2.37900        0.20100
C         -1.87380       -2.49280        1.48550
C         -1.92860       -2.63890       -1.00090
C         -1.13980        0.10030        0.10280
C         -0.29850        1.17570        0.07670
N          0.96700        0.71820        0.04990
C          2.15140        1.55030        0.30990
C          2.32350        2.67280       -0.71540
C          1.99560        2.17770        1.71870
Ag         2.65840       -1.88140       -0.01350
Br         3.30950       -0.93600       -2.33520
C          2.11800       -2.66630        1.91380
C          1.18760       -2.08550        2.67270
N          4.37500       -3.09110       -0.02470
C          4.66170       -4.04060        0.94060
C          5.81190       -4.82960        0.92960
C          6.77220       -4.62700       -0.03600
Cl         8.25650       -5.56100       -0.01770
C          6.53750       -3.67580       -1.01040
C          5.33120       -2.96080       -1.01590
H         -0.20430       -3.13910        0.22500
H         -2.72820       -1.78310        1.45500
H         -1.30930       -2.26010        2.40040
H         -2.27750       -3.51880        1.58710
H         -2.76470       -1.90070       -1.03510
H         -2.37450       -3.64750       -0.93290
H         -1.36000       -2.55820       -1.95350
H         -2.21970        0.16240        0.16930
H         -0.59380        2.22150        0.14650
H          3.05230        0.89840        0.32960
H          1.43030        3.33720       -0.71920
H          2.47000        2.25630       -1.72880
H          3.20370        3.29660       -0.44270
H          1.21130        2.96940        1.72740
H          2.94540        2.63510        2.06600
H          1.69050        1.40850        2.46250
H          2.53380       -3.46660        2.46840
H          0.66790       -1.18950        2.38500
H          0.96150       -2.47930        3.66070
H          4.02560       -4.33660        1.71100
H          5.94870       -5.59580        1.68470
H          7.29190       -3.47870       -1.76180
H          5.29160       -2.24070       -1.78850
