115

C          0.90100       -0.64300       -0.00200
N          0.57480        0.64540       -0.62050
C          1.26250        1.78730       -1.39830
C          1.78320        1.27760       -2.72180
C          0.78830        1.35090       -3.86300
C          0.51730        2.80870       -4.17770
C         -0.16500        3.44930       -2.96390
C          0.65860        3.23770       -1.67170
C         -0.70730        0.86870       -0.34760
C         -1.22040       -0.14370        0.35430
N         -0.31890       -1.13120        0.60560
C         -0.84280       -2.33040        1.47310
C         -2.33020       -2.16600        1.93870
C         -3.35100       -2.50250        0.78620
C         -3.23070       -3.95740        0.29350
C         -1.81290       -4.21360       -0.14110
C         -0.96850       -3.87300        1.07050
Ag         2.65840       -1.88140       -0.01350
Br         2.62840       -1.44140        2.57780
C          2.39230       -2.13120       -2.24930
C          3.27300       -2.71860       -3.09670
C          4.41590       -3.11990       -0.02500
N          4.49180       -4.51460       -0.15370
C          3.52690       -5.72440        0.03320
C          3.52990       -7.11320       -0.54150
C          4.45270       -7.81820       -1.51100
C          4.46060       -7.14250       -2.87140
C          5.73360       -8.24440       -0.81240
C          2.47730       -8.05120       -0.24000
C          1.43840       -7.77870        0.56790
C          1.39730       -6.57410        1.12600
C          2.40620       -5.59150        0.89710
C          2.07840       -4.28970        1.32470
C          1.50250       -3.88970       -0.13620
C          1.55360       -4.37040        2.82670
C          5.87650       -4.84280       -0.34070
C          6.53590       -3.54620       -0.72140
N          5.81010       -2.49730       -0.04090
C          6.46700       -1.15760        0.34480
C          5.88530        0.17360        0.21880
C          4.72470        0.55490       -0.58880
C          4.56800       -0.40220       -1.69970
C          3.63100        0.73180        0.37780
C          6.36840        1.33970        0.75640
C          7.53620        1.37120        1.35660
C          8.31790        0.24360        1.35190
C          7.84370       -1.02120        0.85540
C          8.90850       -2.10460        0.80600
C          9.62170       -1.98690       -0.57660
C          9.98300       -1.99320        1.89800
H          2.03900        2.18680       -0.73990
H          1.92170        0.23360       -2.60130
H          2.71130        1.83030       -2.99650
H         -0.14960        0.82110       -3.58440
H          1.24300        0.85470       -4.74600
H         -0.13470        2.88530       -5.07260
H          1.48390        3.31240       -4.42160
H         -1.17440        3.02040       -2.84450
H         -0.26750        4.54240       -3.17300
H          0.16220        3.69580       -0.78900
H          1.54610        3.89550       -1.86550
H         -1.27420        1.74020       -0.64730
H         -2.25240       -0.09050        0.64700
H         -0.23850       -2.28350        2.38710
H         -2.48240       -1.17730        2.40320
H         -2.53190       -2.86660        2.78140
H         -3.18070       -1.87160       -0.10460
H         -4.38230       -2.35690        1.15530
H         -3.91690       -4.19010       -0.54490
H         -3.46180       -4.66320        1.12640
H         -1.49060       -3.63360       -1.03490
H         -1.70740       -5.29880       -0.39810
H         -0.20630       -4.55310        1.06500
H         -1.34910       -4.44400        1.94630
H          1.48870       -1.76580       -2.72100
H          4.23200       -3.10370       -2.77500
H          3.07160       -2.77890       -4.16780
H          4.05720       -8.82930       -1.79470
H          4.79760       -6.09780       -2.82980
H          3.41260       -7.13610       -3.26200
H          5.07270       -7.74050       -3.57550
H          6.40000       -7.42780       -0.53750
H          6.27190       -8.97900       -1.44310
H          5.44820       -8.76610        0.13450
H          2.40140       -9.05250       -0.64390
H          0.63410       -8.48790        0.74430
H          0.49320       -6.43560        1.69330
H          2.95260       -3.72350        1.56510
H          0.83780       -4.61710       -0.66380
H          2.26810       -3.94760       -0.90350
H          0.96980       -2.97280       -0.25300
H          1.25000       -3.43680        3.29900
H          0.71530       -5.02770        3.09340
H          2.40390       -4.73840        3.45050
H          6.04000       -5.50820       -1.19400
H          6.28400       -5.27470        0.60320
H          6.30300       -3.39780       -1.80080
H          7.61400       -3.60050       -0.74290
H          4.86230        1.49970       -1.16510
H          4.24660       -1.25890       -1.23800
H          5.45870       -0.61990       -2.30390
H          3.81850       -0.08410       -2.37140
H          3.67280       -0.09320        1.00110
H          2.81250        0.53260       -0.17270
H          3.61130        1.66160        0.99200
H          5.83160        2.29740        0.69660
H          7.91490        2.32500        1.75740
H          9.28980        0.42570        1.74130
H          8.45650       -3.08710        1.01370
H         10.05960       -0.97120       -0.71110
H          8.94690       -2.12170       -1.44800
H         10.44370       -2.72460       -0.66660
H         10.61550       -1.08970        1.79740
H         10.68520       -2.83980        1.80840
H          9.48590       -2.00860        2.88750
