40

C          0.90100       -0.64300       -0.00200
N         -0.36250       -1.10850        0.05380
C         -0.79100       -2.49820        0.19290
C         -1.67860       -2.94680       -0.96340
C         -1.15920       -0.02150        0.03290
C         -0.36130        1.10320       -0.02240
N          0.92780        0.70950       -0.02990
C          2.08910        1.60010       -0.13240
C          3.01190        1.50080        1.07330
Ag         2.65840       -1.88140       -0.01350
Br         2.59900       -1.94170       -2.60210
C          2.70780       -1.83140        2.13530
C          1.81460       -1.19550        2.89960
N          4.37500       -3.09110       -0.02470
C          5.22670       -1.89590       -0.12230
N          4.58300       -3.92350       -1.09540
C          5.37820       -4.88060       -0.77800
C          5.72200       -4.80090        0.56410
C          5.05230       -3.70040        1.06680
H         -1.36360       -2.59210        1.14060
H          0.09300       -3.16490        0.25440
H         -2.58240       -2.30610       -1.03640
H         -2.00540       -3.99410       -0.77950
H         -1.11200       -2.90670       -1.91550
H         -2.24380       -0.03290        0.07420
H         -0.69680        2.13190       -0.05300
H          1.74050        2.65300       -0.20660
H          2.65870        1.36070       -1.05680
H          2.45260        1.72360        2.00550
H          3.83450        2.24030        0.96570
H          3.46420        0.49540        1.13190
H          3.47830       -2.33820        2.67880
H          0.98090       -0.64250        2.49730
H          1.91920       -1.22580        3.98010
H          4.91670       -1.29950       -1.00540
H          6.31240       -2.12100       -0.27610
H          5.10900       -1.22700        0.76050
H          5.71730       -5.63200       -1.47810
H          6.38670       -5.45330        1.11470
H          5.14860       -3.36380        2.08630
