53

C          2.32700        0.03400        0.00000
N          1.53550        1.13300        0.07450
C          1.98900        2.52770        0.08300
C          2.90670        2.82560       -1.12310
C          2.19640        2.68960       -2.47930
C          3.15430        3.00650       -3.62980
C          0.27010        0.65300        0.03120
C          0.31200       -0.71670       -0.04340
C         -0.85300       -1.49130       -0.07050
C         -2.08600       -0.82240       -0.04280
C         -2.13370        0.58620        0.01050
C         -0.94680        1.34390        0.04930
N          1.59900       -1.11770       -0.07040
C          2.10200       -2.50400       -0.04880
C          2.94410       -2.74480        1.21160
C          3.45860       -4.18850        1.27960
C          4.30680       -4.40720        2.53000
Ag         4.47690        0.05800        0.00140
Br         4.46180        1.27330        2.28860
C          4.48940       -0.95080       -1.89720
C          3.44090       -1.12340       -2.70700
C          6.62670        0.08210        0.00280
N          7.36540        0.85790        0.81990
C          8.63530        0.55920        0.49440
C          8.62250       -0.38510       -0.50590
O          7.37190       -0.65830       -0.78670
H          2.55270        2.72550        1.01020
H          1.12960        3.22890        0.06960
H          3.78310        2.14170       -1.09720
H          3.28430        3.86620       -1.02620
H          1.33930        3.39560       -2.52290
H          1.81240        1.65600       -2.61250
H          3.54450        4.04290       -3.53650
H          2.62410        2.91750       -4.60180
H          4.01020        2.29760       -3.62940
H         -0.83130       -2.57080       -0.11610
H         -3.00470       -1.39500       -0.06600
H         -3.09390        1.08460        0.02550
H         -0.99450        2.42180        0.09670
H          2.70700       -2.73040       -0.93980
H          1.26110       -3.22560       -0.04590
H          2.32360       -2.53380        2.11050
H          3.81310       -2.05180        1.20700
H          4.07910       -4.40810        0.38350
H          2.59950       -4.89440        1.29990
H          5.18410       -3.72550        2.52390
H          4.67230       -5.45550        2.55780
H          3.70410       -4.21670        3.44360
H          5.44150       -1.33830       -2.23960
H          2.45300       -0.76140       -2.46670
H          3.57240       -1.65190       -3.64610
H          9.50940        0.99900        0.95530
H          9.48060       -0.83470       -0.98710
