58

C          1.02400       -0.65300       -0.05500
N          1.04100        0.63290       -0.12120
C          2.24270        1.45170       -0.25320
C          2.19560        2.28040       -1.54250
C          2.38710        2.39270        0.95650
C         -0.29330        1.17750        0.03740
C         -1.20790       -0.04560       -0.01660
N         -0.29180       -1.15000        0.13680
C         -0.69610       -2.53280        0.36780
C         -1.49140       -2.63700        1.68410
C         -1.56070       -3.05570       -0.78530
Ag         2.78020       -1.86970       -0.29550
Br         2.47270       -1.83490       -2.75080
C          3.01320       -1.92840        1.75840
C          3.81280       -1.01310        2.32200
N          4.49560       -3.05820       -0.53040
C          5.63560       -2.42640       -0.92090
C          6.83610       -3.13120       -1.02370
C          6.84210       -4.50790       -0.80890
C          5.64810       -5.16430       -0.48960
C          5.60540       -6.55540       -0.36950
C          4.39270       -7.20370       -0.13040
C          3.19300       -6.47170        0.00940
C          1.86480       -7.13930        0.20990
O          0.86050       -6.44570        0.28100
C          1.66630       -8.63140        0.31840
C          3.25420       -5.06060       -0.07450
C          4.46840       -4.40620       -0.32240
H          3.14440        0.80100       -0.29400
H          1.31380        2.95570       -1.55550
H          2.15000        1.60930       -2.42430
H          3.10660        2.91150       -1.62510
H          1.53030        3.09900        1.02000
H          3.31520        2.99720        0.86790
H          2.43750        1.81050        1.90020
H         -0.58050        1.90830       -0.74620
H         -0.34730        1.65090        1.04260
H         -1.67870       -0.14440       -1.02020
H         -1.98410        0.02680        0.77120
H          0.20420       -3.17870        0.44890
H         -2.40450       -2.00340        1.65710
H         -0.86760       -2.31820        2.54460
H         -1.82730       -3.68130        1.85980
H         -2.48870       -2.45390       -0.89470
H         -1.85740       -4.10940       -0.58750
H         -0.99080       -3.02570       -1.73600
H          2.54110       -2.69620        2.37360
H          4.29260       -0.26790        1.70270
H          3.99040       -1.00470        3.39300
H          5.62800       -1.35400       -1.06460
H          7.75470       -2.61360       -1.26870
H          7.76810       -5.05960       -0.92020
H          6.50430       -7.14720       -0.49910
H          4.42400       -8.27890       -0.08360
H          2.59030       -9.22840        0.24940
H          0.98910       -8.97480       -0.49230
H          1.19560       -8.86260        1.29630
H          2.35030       -4.46850       -0.00230
