49

C          0.90100       -0.64300       -0.00200
N          0.78380        0.45750        0.77010
C          1.72750        0.95960        1.75910
C         -0.43780        0.96280        0.53390
C         -1.06430        0.15910       -0.38830
N         -0.23740       -0.86310       -0.71640
C         -0.51820       -1.90940       -1.68120
C         -1.73170       -1.92250       -2.41000
C         -1.99720       -2.92750       -3.34350
C         -1.06220       -3.93550       -3.57090
C          0.14570       -3.93210       -2.87230
C          0.41780       -2.92310       -1.94130
Ag         2.65840       -1.88140       -0.01350
Br         3.70940       -0.37310       -1.83790
C          1.78600       -3.13360        1.50090
C          0.52070       -3.06620        1.92020
N          4.37500       -3.09110       -0.02470
C          5.64230       -2.53230       -0.11970
C          5.91550       -1.06480        0.03370
C          6.79650       -3.33090       -0.15100
C          6.70030       -4.70990       -0.08280
C          7.92420       -5.58040       -0.09380
C          5.44440       -5.28230        0.00170
C          4.28460       -4.48500        0.03910
C          2.98870       -5.26510       -0.13200
H          2.63020        0.31870        1.79990
H          1.23560        0.92510        2.76040
H          2.00120        2.00640        1.53260
H         -0.85700        1.84000        1.01110
H         -2.06080        0.32840       -0.77140
H         -2.48620       -1.16410       -2.27490
H         -2.93090       -2.92410       -3.89110
H         -1.27220       -4.71670       -4.29090
H          0.87340       -4.71240       -3.05480
H          1.35730       -2.93830       -1.42480
H          2.43440       -3.83030        2.01160
H         -0.19730       -2.37710        1.50380
H          0.19100       -3.71990        2.72210
H          5.01900       -0.50980        0.36470
H          6.37650       -0.65200       -0.88960
H          6.63620       -0.91400        0.86640
H          7.77780       -2.86950       -0.18460
H          8.85550       -4.97860       -0.15860
H          7.88850       -6.27040       -0.96270
H          7.96180       -6.17860        0.84180
H          5.37390       -6.36470        0.01260
H          3.19480       -6.31570       -0.43000
H          2.41670       -4.85120       -0.98160
H          2.36260       -5.41890        0.75450
