48

C         -0.08160       -1.34790        0.07490
N         -0.65310       -0.39640        0.89300
C         -1.68970       -0.56780        1.88050
C         -0.13760        0.80060        0.49260
C         -0.49280        2.16230        1.04180
C          0.72500        0.59390       -0.55700
C          1.50520        1.67130       -1.28770
N          0.71750       -0.73060       -0.83820
C          1.43840       -1.33650       -1.96960
Ag        -0.49020       -3.48260       -0.01010
Br        -2.24930       -3.22580       -1.89350
C          0.97010       -3.69590        1.55350
C          2.23320       -4.06520        1.35830
P         -0.97880       -5.82230       -0.06160
N         -0.41230       -7.44130        0.31420
C         -1.26800       -8.61720        0.09910
C          0.81290       -7.50660       -0.50310
O         -2.31540       -5.82900        1.01980
C         -1.97110       -5.31040        2.26920
O         -1.44940       -5.96340       -1.72200
C         -2.48980       -6.89910       -1.98190
H         -1.97240       -1.63160        1.98450
H         -2.58710        0.00770        1.54600
H         -1.34870       -0.15180        2.84630
H         -1.25930        2.11580        1.83770
H         -0.89090        2.80400        0.22260
H          0.41610        2.65380        1.45000
H          1.31430        2.68350       -0.87070
H          1.22500        1.69610       -2.36060
H          2.59620        1.48070       -1.19700
H          1.97470       -0.56510       -2.57140
H          0.70390       -1.80630       -2.64990
H          2.18960       -2.07750       -1.62870
H          0.85040       -3.10410        2.45650
H          2.60270       -4.32770        0.37680
H          2.94040       -3.93810        2.18090
H         -2.28320       -8.47430        0.52200
H         -0.81100       -9.46800        0.63790
H         -1.29870       -8.95540       -0.95540
H          1.45800       -6.60840       -0.31760
H          0.57340       -7.49410       -1.59750
H          1.42010       -8.38490       -0.24840
H         -2.88900       -5.30820        2.90440
H         -1.65640       -4.25050        2.20430
H         -1.24060       -5.96810        2.77890
H         -3.23860       -6.50730       -2.70410
H         -3.09750       -7.21570       -1.10660
H         -2.03170       -7.75630       -2.51500
