34

P          1.07920       -0.00690       -0.06060
O         -0.36270        0.39540       -0.88740
C         -0.15240        1.67190       -1.48840
O          0.76140       -1.67900        0.07170
C          0.82580       -2.28760       -1.19340
O          0.78580        1.07620        1.25170
C         -0.54000        0.92370        1.70270
Ag         3.53920       -0.00690       -0.06060
Br         3.53920       -1.06680        2.30260
C          3.53920        0.87290       -2.02240
C          3.39120        2.17080       -2.28250
N          5.63920       -0.00690       -0.06060
C          6.32600        0.76220       -0.96490
C          7.72250        0.79880       -0.99130
C          8.44200       -0.01010       -0.13380
Cl        10.19300       -0.02500       -0.19230
C          7.75310       -0.82310        0.76730
C          6.36020       -0.78170        0.81390
H         -0.55070        1.68670       -2.52070
H          0.90970        1.98650       -1.59740
H         -0.64430        2.46770       -0.89340
H          0.10190       -3.13200       -1.19720
H          1.84610       -2.68410       -1.36190
H          0.52050       -1.63280       -2.03830
H         -0.65250        1.40610        2.69240
H         -0.83930       -0.14510        1.81710
H         -1.27080        1.44770        1.04860
H          3.67190        0.18650       -2.85250
H          3.25260        2.89350       -1.48940
H          3.40520        2.50390       -3.31800
H          5.83600        1.42560       -1.64780
H          8.23040        1.45400       -1.69210
H          8.30510       -1.48450        1.42540
H          5.89460       -1.45490        1.50250
