85

N         -0.65900       -1.22800       -0.05100
C         -0.54430       -0.21930       -1.00570
F         -1.12450       -0.22990       -2.20360
C          0.13150        0.97720       -0.76060
C          0.80130        1.16330        0.42610
C          0.71550        0.18290        1.39440
C         -0.06210       -0.96150        1.16460
Ag        -1.57560       -3.10440       -0.27260
Br        -2.60230       -2.87520        2.08680
C         -0.64480       -3.15340       -2.21620
C         -0.73250       -4.14180       -3.09560
C         -2.51410       -5.02540       -0.49940
N         -3.80310       -5.24100       -0.95250
C         -4.98000       -4.35140       -1.47880
C         -6.10160       -4.73160       -2.42140
C         -6.31980       -5.98220       -3.27280
C         -5.15010       -6.19360       -4.23480
C         -6.94010       -7.14900       -2.52670
C         -7.10190       -3.78170       -2.83250
C         -7.11620       -2.48300       -2.46720
C         -6.12040       -2.04010       -1.70400
C         -5.08500       -2.91950       -1.24050
C         -3.89480       -2.18200       -0.93970
C         -3.28150       -2.27400       -2.37390
C         -4.06380       -0.77670       -0.28510
C         -4.00720       -6.65950       -0.76720
C         -2.62430       -7.27340       -0.55840
N         -1.79200       -6.27670        0.06640
C         -0.61720       -6.71470        1.01130
C          0.76290       -6.10550        1.14000
C          1.32610       -4.90410        0.45990
C          1.50310       -5.07880       -1.03530
C          0.48200       -3.81910        0.98740
C          1.73910       -6.51730        2.07860
C          1.54780       -7.53470        2.92300
C          0.38720       -8.21260        2.84750
C         -0.69230       -7.86340        1.95720
C         -1.82760       -8.90210        2.18260
C         -1.37890      -10.21930        1.50400
C         -2.16650       -9.22500        3.67270
H          0.14310        1.75670       -1.51450
H          1.37210        2.06810        0.59190
H          1.25200        0.30880        2.32580
H         -0.09180       -1.65340        1.97560
H          0.00820       -2.33170       -2.46820
H         -1.32320       -5.01910       -2.88100
H         -0.17100       -4.08060       -4.02950
H         -7.13560       -5.81000       -4.01700
H         -4.19810       -6.37210       -3.71230
H         -5.03060       -5.26930       -4.85520
H         -5.38240       -7.01760       -4.94040
H         -6.33120       -7.63850       -1.77170
H         -7.26070       -7.91010       -3.26620
H         -7.85150       -6.77220       -2.00820
H         -7.89830       -3.99620       -3.52980
H         -7.84840       -1.77950       -2.85340
H         -6.10360       -0.96580       -1.60430
H         -3.47930       -2.76950       -0.18220
H         -3.97430       -2.10930       -3.22860
H         -2.99970       -3.32160       -2.54600
H         -2.47010       -1.67170       -2.67850
H         -4.31710        0.02010       -1.01350
H         -3.15970       -0.45050        0.26130
H         -4.86980       -0.84630        0.48130
H         -4.39310       -7.14640       -1.64090
H         -4.65880       -6.77400        0.13660
H         -2.20480       -7.38850       -1.57500
H         -2.59040       -8.30670       -0.20180
H          2.36110       -4.58960        0.75730
H          0.60830       -5.52060       -1.49250
H          2.35330       -5.77680       -1.21060
H          1.78930       -4.10570       -1.49300
H         -0.44840       -4.19200        0.67180
H         -0.08360       -4.05370        1.91850
H          1.01200       -3.43770        1.88640
H          2.70250       -6.02550        2.20090
H          2.31710       -7.79850        3.64360
H          0.37330       -9.02570        3.54900
H         -2.77700       -8.52070        1.78840
H         -0.41520      -10.58400        1.93380
H         -1.20030      -10.06060        0.42080
H         -2.12300      -11.02640        1.63900
H         -1.38730       -9.81560        4.20580
H         -3.05820       -9.88180        3.72290
H         -2.35830       -8.30230        4.25610
