35

N         -1.42570       -0.12380       -0.10050
C         -0.76700        1.03940       -0.41440
C          0.64190        1.09790       -0.44580
C          1.37400        2.31990       -0.93730
C          1.37020       -0.02430       -0.04870
C          0.69710       -1.19750        0.28750
C         -0.70170       -1.24710        0.19070
Ag        -3.47560       -0.20170       -0.28210
Br        -3.21130       -2.19470       -1.91500
C         -3.69510        1.45260        1.07350
C         -2.72180        2.13460        1.68890
N         -5.51840       -0.36120       -0.45460
C         -6.11780       -1.57050       -0.69960
N         -7.45550       -1.64430       -0.94790
C         -8.22200       -0.52690       -1.04670
O         -9.53100       -0.60530       -1.39710
C        -10.18290       -1.79200       -1.67460
C         -7.63380        0.71570       -0.81980
C         -6.27880        0.76960       -0.48070
H         -1.33930        1.89360       -0.74900
H          0.67340        3.12670       -1.23730
H          1.97610        2.05270       -1.83750
H          2.06400        2.70730       -0.16130
H          2.45590        0.00430       -0.02460
H          1.26670       -2.06440        0.60370
H         -1.21140       -2.16820        0.44330
H         -4.69300        1.75100        1.36130
H         -1.67550        1.92640        1.58870
H         -2.97610        2.93650        2.37300
H         -5.56390       -2.49040       -0.61650
H        -11.23860       -1.58620       -1.95080
H        -10.17310       -2.45010       -0.78020
H         -9.69520       -2.31460       -2.52660
H         -8.20040        1.63050       -0.95010
H         -5.82310        1.74060       -0.40970
