38

N         -1.46340       -0.08320       -0.12590
C         -0.84830        1.11960       -0.23710
C          0.54210        1.20750       -0.21070
C          1.35580        0.04580       -0.11490
N          2.81310        0.12450       -0.17160
C          3.53690        1.39620       -0.25250
C          3.69860       -1.03600       -0.21290
C          0.66470       -1.19080       -0.00150
C         -0.73550       -1.21890        0.00400
Ag        -3.47560       -0.20170       -0.28210
Br        -3.57660       -0.26450        2.30520
C         -3.39180       -0.14970       -2.42980
C         -2.48250        0.46050       -3.18530
N         -5.55330       -0.26050       -0.46000
C         -5.65600       -1.64300       -0.05960
N         -6.08460        0.05190       -1.68530
C         -7.16690        0.71440       -1.59910
C         -7.46650        0.95170       -0.27330
C         -6.41930        0.40820        0.46100
H         -1.44850        2.01350       -0.33480
H          0.92250        2.19880       -0.28560
H          2.92100        2.30140       -0.21690
H          4.10850        1.43920       -1.20340
H          4.24650        1.47920        0.59680
H          3.19970       -2.01310       -0.16730
H          4.41950       -0.99290        0.63310
H          4.28260       -1.02120       -1.16010
H          1.16210       -2.14720        0.06900
H         -1.24710       -2.17350        0.06260
H         -4.26680       -0.41870       -3.00300
H         -1.70640        1.07740       -2.75820
H         -2.69540        0.54250       -4.25620
H         -4.99010       -2.23910       -0.70430
H         -6.69860       -2.00880       -0.17310
H         -5.34120       -1.79980        0.99130
H         -7.72770        1.02710       -2.47630
H         -8.33980        1.47150        0.08590
H         -6.35580        0.42680        1.54260
