75

P          0.93480       -0.04220       -0.06290
O         -0.20240        0.02470        1.22620
C          0.20380       -1.01210        2.13000
C         -0.48690       -0.94180        3.47880
O          0.48660        1.36150       -0.92310
C          0.66280        2.51900       -0.15580
C          0.08180        3.67930       -0.96210
O          0.43830       -1.60400       -0.60200
C         -0.97750       -1.57580       -0.83080
C         -1.54070       -2.97810       -0.99320
Ag         3.39480       -0.04220       -0.06290
Br         2.84540       -0.14550       -2.48320
C          3.53530        0.18800        2.00290
C          3.69120        1.37620        2.58930
P          5.85480       -0.04220       -0.06290
C          6.71490       -1.64270        0.22380
C          7.64260       -1.93440        1.24940
C          8.08680       -3.25860        1.44680
C          8.96160       -3.62310        2.61140
C          7.65400       -4.28740        0.58720
C          6.78610       -4.00790       -0.45800
C          6.31340       -2.70690       -0.61930
C          6.49410        0.14850       -1.77320
C          7.63100        0.95550       -1.95780
C          8.12880        1.23460       -3.24070
C          9.36370        2.06120       -3.42800
C          7.46600        0.72760       -4.36350
C          6.36560       -0.10430       -4.19770
C          5.91030       -0.42000       -2.91580
C          6.41210        1.03700        1.30060
C          6.62290        2.36740        0.87880
C          7.09530        3.35860        1.74860
C          7.31230        4.76240        1.25130
C          7.35550        3.02040        3.07840
C          7.12280        1.71360        3.52810
C          6.63820        0.72300        2.65420
H          1.28490       -0.97390        2.35850
H         -0.03210       -2.01780        1.71720
H         -0.22910        0.00050        4.00210
H         -0.12480       -1.79510        4.10010
H         -1.58280       -1.03980        3.35780
H          1.74960        2.70650        0.01300
H          0.11110        2.47150        0.80470
H          0.59120        3.75510       -1.94860
H          0.20500        4.63720       -0.41730
H         -1.00240        3.50920       -1.14420
H         -1.23210       -0.96270       -1.71950
H         -1.57430       -1.19680        0.02850
H         -1.12790       -3.45780       -1.90040
H         -2.65080       -2.91830       -1.08650
H         -1.30740       -3.58880       -0.09470
H          3.47790       -0.69720        2.62650
H          3.77730        2.28230        2.00150
H          3.77460        1.43520        3.67180
H          8.00290       -1.19270        1.92520
H          9.17350       -2.74150        3.24740
H          9.90820       -4.06630        2.25170
H          8.42440       -4.37140        3.23860
H          7.99180       -5.30680        0.72990
H          6.44690       -4.78700       -1.10950
H          5.58310       -2.55700       -1.39080
H          8.13990        1.37250       -1.10100
H          9.81310        2.34770       -2.45370
H          9.12950        2.98070       -4.00230
H         10.11480        1.46260       -3.98840
H          7.81300        0.95980       -5.36320
H          5.85980       -0.51280       -5.06580
H          5.09220       -1.09120       -2.85230
H          6.42610        2.64420       -0.14910
H          7.04060        4.86740        0.17620
H          8.37820        5.05010        1.36000
H          6.68270        5.47300        1.82900
H          7.72990        3.77300        3.76050
H          7.31860        1.47180        4.56360
H          6.45270       -0.26500        3.04590
