39

N         -0.67900        1.19300        0.00100
C          0.68070        1.18570       -0.16900
C          1.44370        2.43540       -0.46750
C          1.39750       -0.02420       -0.14760
C          0.72310       -1.23210        0.03500
C          1.47590       -2.53830        0.05240
C         -0.65550       -1.21000        0.21310
C         -1.35290        0.01070        0.19260
C         -2.82360       -0.03150        0.45150
Ag        -1.69140        3.03290        0.00550
Br        -1.36900        3.20400        2.56960
C         -1.95900        2.89080       -2.12310
C         -1.61700        1.81780       -2.83950
N         -2.70380        4.87270        0.01000
C         -1.64700        5.68170       -0.60220
N         -3.83860        4.95820       -0.75420
C         -4.74300        5.62500       -0.12880
C         -4.27810        6.02630        1.11870
C         -2.99450        5.53550        1.22150
H          0.75710        3.27850       -0.68970
H          2.06910        2.26520       -1.37130
H          2.11190        2.68630        0.38030
H          2.47100       -0.02580       -0.30320
H          2.56650       -2.39030       -0.10140
H          1.09850       -3.19920       -0.75730
H          1.32990       -3.04610        1.02990
H         -1.18680       -2.14480        0.36530
H         -2.99090       -0.54020        1.42800
H         -3.32630       -0.62240       -0.33960
H         -3.25670        0.98550        0.50450
H         -2.39800        3.72110       -2.66360
H         -1.17370        0.94080       -2.39400
H         -1.77960        1.81160       -3.91230
H         -1.38200        5.32800       -1.61280
H         -0.72150        5.67140        0.00890
H         -1.97920        6.74190       -0.73920
H         -5.72200        5.83190       -0.53560
H         -4.80070        6.60730        1.86670
H         -2.33120        5.67760        2.06390
