52

N         -0.67900        1.19300        0.00100
C         -0.73230        0.40040        1.10570
F         -1.48240        0.77980        2.16890
C         -0.12810       -0.86100        1.09090
C          0.60670       -1.25280       -0.03020
F          1.23430       -2.45450       -0.04740
C          0.68940       -0.40420       -1.13540
C         -0.00730        0.80720       -1.11830
F          0.07710        1.65250       -2.17450
Ag        -1.69140        3.03290        0.00550
Br         0.22070        4.08150        1.40280
C         -3.27860        2.16230       -1.15440
C         -3.38780        0.87320       -1.47560
P         -2.87730        5.18810        0.01070
C         -2.69250        6.45340        1.30580
C         -1.66330        7.40650        1.38890
C         -1.50130        8.17000        2.56220
C         -2.34870        7.98110        3.65950
C         -3.35660        7.02570        3.59660
C         -3.51700        6.26370        2.44520
C         -2.13050        5.93390       -1.45770
C         -2.95010        6.45060       -2.47860
C         -2.38470        7.05400       -3.60670
C         -0.99610        7.13460       -3.73420
C         -0.17550        6.61690       -2.73000
C         -0.73910        6.02500       -1.59530
C         -4.70610        4.99210       -0.01690
C         -5.52050        6.12000       -0.19950
C         -6.90900        6.00630       -0.07830
C         -7.49570        4.77540        0.21470
C         -6.68180        3.67740        0.42470
O         -7.16010        2.59090        0.72150
N         -5.30850        3.80870        0.33360
H         -0.23140       -1.52930        1.93640
H          1.28200       -0.68380       -1.99720
H         -4.07030        2.80970       -1.50270
H         -2.67880        0.12860       -1.14730
H         -4.25310        0.54740       -2.04790
H         -0.95290        7.53790        0.58630
H         -0.69490        8.88640        2.64020
H         -2.21080        8.55010        4.57060
H         -3.99740        6.84920        4.45200
H         -4.27470        5.49380        2.46540
H         -4.02680        6.40790       -2.40810
H         -3.02230        7.46130       -4.38120
H         -0.55820        7.59710       -4.60920
H          0.90040        6.67690       -2.82660
H         -0.08520        5.64150       -0.83260
H         -5.08560        7.09140       -0.39180
H         -7.53890        6.87910       -0.19500
H         -8.56600        4.68640        0.31260
H         -4.72460        2.98050        0.58960
