93

P          1.00680       -0.09870        0.01430
O         -0.12000       -0.93340        1.01270
C          0.30650       -2.30530        0.99610
C         -0.27530       -3.14330        2.12040
O          0.52940        1.52190        0.29380
C          0.49200        1.84090        1.66050
C         -0.33830        3.11390        1.81790
O          0.53350       -0.92770       -1.42150
C         -0.88320       -0.77440       -1.57910
C         -1.42280       -1.69340       -2.66050
Ag         3.46680       -0.09870        0.01430
Br         3.29290        0.98540       -2.22630
C          3.48480       -1.07490        1.85130
C          3.59560       -0.43350        3.01250
P          5.92680       -0.09870        0.01430
C          6.31940        1.30530       -1.22670
C          5.79900        2.65470       -0.98950
C          4.73590        3.05410        0.00590
C          6.16900        3.74800       -1.78770
C          6.94600        3.58920       -2.90930
C          7.32610        4.76820       -3.76460
C          7.29030        2.29900       -3.29030
C          6.97680        1.17060       -2.49620
C          7.25170       -0.14700       -3.14310
C          6.38500       -0.06320        1.91330
C          6.61560       -1.28600        2.66270
C          6.28770       -2.67220        2.19520
C          7.22510       -1.26630        3.94350
C          7.59370       -0.08800        4.56920
C          8.28670       -0.04560        5.90630
C          7.31110        1.09660        3.93800
C          6.73100        1.14540        2.65810
C          6.50150        2.55020        2.24120
C          6.72380       -1.66890       -0.69080
C          6.07910       -2.66590       -1.52340
C          4.70540       -2.56170       -2.12540
C          6.75780       -3.85830       -1.87450
C          8.05380       -4.11800       -1.44410
C          8.76340       -5.40970       -1.77260
C          8.71840       -3.15590       -0.70580
C          8.11380       -1.95160       -0.34430
C          8.99600       -0.99860        0.46550
H          1.39710       -2.41490        1.09940
H          0.01110       -2.80430        0.04450
H          0.03150       -2.74360        3.10940
H          0.12410       -4.18100        2.03120
H         -1.37980       -3.18920        2.03830
H          1.52270        2.03210        2.02260
H         -0.00740        1.06600        2.28000
H          0.09180        3.93490        1.20450
H         -0.35780        3.43250        2.88060
H         -1.38470        2.93760        1.48200
H         -1.15120        0.27840       -1.80680
H         -1.47550       -1.10230       -0.69990
H         -1.00560       -1.41630       -3.64530
H         -2.53340       -1.60000       -2.69340
H         -1.17930       -2.75180       -2.42120
H          3.42640       -2.15720        1.86150
H          3.68770        0.64420        3.04410
H          3.62300       -1.00420        3.93750
H          4.34560        2.19590        0.58190
H          3.86950        3.47180       -0.53730
H          5.07900        3.90650        0.63830
H          5.80240        4.75300       -1.55160
H          6.97760        5.73230       -3.32830
H          6.88460        4.66620       -4.77790
H          8.43180        4.81780       -3.85580
H          7.79970        2.18030       -4.23290
H          7.59550       -0.04160       -4.19220
H          6.26590       -0.65410       -3.22780
H          8.00370       -0.72990       -2.60830
H          5.69530       -2.69790        1.27490
H          5.66200       -3.15820        2.97420
H          7.22390       -3.25860        2.08130
H          7.43130       -2.19340        4.46450
H          8.49260       -1.06160        6.29890
H          7.66820        0.50870        6.64440
H          9.25990        0.48680        5.80500
H          7.57460        2.00790        4.47410
H          6.86250        3.32970        2.95370
H          5.40870        2.68670        2.33980
H          6.99690        2.77510        1.28640
H          4.20040       -1.61950       -1.88410
H          4.07710       -3.42460       -1.81850
H          4.81750       -2.62230       -3.23690
H          6.26660       -4.60720       -2.49020
H          8.13500       -6.09420       -2.37780
H          9.03080       -5.93830       -0.82910
H          9.70010       -5.20230       -2.33030
H          9.73170       -3.37160       -0.39200
H         10.04260       -1.35380        0.48710
H          8.71500       -0.90790        1.50480
H          8.99620       -0.00740       -0.03070
