59

P          1.04250       -0.01350        0.08950
C          0.02110       -0.92870       -1.16860
C          0.35790       -0.42650       -2.57910
C         -0.26100       -1.50570       -3.45140
C          0.27230       -2.76000       -2.78880
C          0.28180       -2.44430       -1.28310
C          0.58450       -0.85370        1.72490
C          0.81480       -2.32230        2.13210
C          0.51260       -2.29370        3.62830
C          1.33740       -1.08960        4.05010
C          1.02770       -0.05450        2.97250
C          0.09620        1.62370       -0.04600
C         -1.42120        1.46040        0.24040
C         -1.90450        2.88970        0.32300
C         -0.84900        3.55780        1.18850
C          0.43100        2.71020        0.99880
Ag         3.50250       -0.01350        0.08950
Br         3.50250       -2.58830        0.36980
C          3.50250        2.12380       -0.14320
C          3.44650        2.63330       -1.37000
C          5.65250       -0.01350        0.08950
N          6.41390        1.09660       -0.03590
H          6.10340        2.07960       -0.14250
C          7.69740        0.67440        0.01700
Cl         9.09370        1.71870       -0.08640
C          7.69660       -0.69200        0.16580
Cl         9.09470       -1.74180        0.28340
N          6.42210       -1.12160        0.21260
H         -1.06770       -0.84150       -1.02300
H          1.46600       -0.43510       -2.73090
H         -0.01840        0.58940       -2.81150
H          0.00780       -1.43220       -4.52940
H         -1.36660       -1.46490       -3.34790
H          1.33700       -2.84120       -3.12060
H         -0.22710       -3.71110       -3.07720
H          1.26510       -2.76000       -0.92090
H         -0.49670       -2.99750       -0.71990
H         -0.52590       -0.83740        1.73720
H          1.85360       -2.62090        2.13680
H          0.22440       -3.06690        1.56120
H          0.81280       -3.22400        4.16000
H         -0.56720       -2.09910        3.80510
H          2.41240       -1.37190        3.94510
H          1.19470       -0.72780        5.09010
H          1.92290        0.58770        2.82620
H          0.15670        0.55430        3.30390
H          0.22140        2.07390       -1.05350
H         -1.58950        0.99340        1.23380
H         -2.01670        0.92030       -0.51730
H         -2.94650        3.01520        0.69850
H         -1.84240        3.30740       -0.70270
H         -1.15820        3.48370        2.25850
H         -0.75870        4.63130        0.92220
H          0.58160        2.23160        1.97490
H          1.33270        3.31530        0.80860
H          3.56090        2.76960        0.72600
H          3.39910        1.96390       -2.22240
H          3.45310        3.70640       -1.52520
H          6.12410       -2.11090        0.31740
