41

P          1.08860        0.03900        0.02490
C          0.00190       -1.31020       -0.58290
C          0.92550       -0.40460        1.78200
C          0.17540        1.48840       -0.73920
C         -1.28700        1.51960       -0.21520
C          0.82030        2.81130       -0.31320
C          0.15990        1.42990       -2.27550
Ag         3.54860        0.03900        0.02490
Br         3.57260        2.24870        1.17840
C          3.47850       -1.97430       -0.54890
C          3.42160       -2.38690       -1.81900
N          5.64860        0.03900        0.02490
C          5.73360        0.26780       -1.41580
N          6.30570       -1.14280        0.24510
C          7.40200       -0.92120        0.88300
C          7.54960        0.43390        1.15320
C          6.42350        1.04210        0.63690
H         -1.04800       -1.24390       -0.25690
H          0.40070       -2.27360       -0.20170
H          0.07000       -1.37840       -1.68740
H         -0.15230       -0.49880        2.03850
H          1.36690        0.39040        2.41390
H          1.43100       -1.37100        1.98180
H         -1.30480        1.52730        0.89920
H         -1.88950        0.66390       -0.56910
H         -1.82170        2.42570       -0.56890
H          0.84990        2.89830        0.79180
H          0.24380        3.68080       -0.70510
H          1.83530        2.88660       -0.75050
H         -0.39280        0.54320       -2.64340
H          1.18370        1.42000       -2.68400
H         -0.38160        2.31760       -2.68420
H          3.49660       -2.71980        0.23800
H          3.40400       -1.68620       -2.64540
H          3.40040       -3.45100       -2.04060
H          5.17580       -0.49570       -1.97480
H          6.78760        0.22010       -1.78450
H          5.30710        1.25650       -1.68790
H          8.11200       -1.69340        1.14510
H          8.36730        0.92350        1.66730
H          6.21640        2.10540        0.67190
