36

P          1.07420       -0.00810        0.06650
C         -0.02360       -1.13120       -0.88440
C          0.93340       -0.94190        1.62200
C          0.15800        1.60320       -0.23850
C         -1.30450        1.48030        0.25940
C          0.80100        2.74440        0.55240
C          0.15020        1.98900       -1.72960
Ag         3.53420       -0.00810        0.06650
Br         3.53420        1.78830        1.93220
C          3.53420       -1.49940       -1.48220
C          3.50990       -1.30470       -2.79760
C          5.68420       -0.00810        0.06650
N          6.44110       -0.78080       -0.73400
C          7.69990       -0.45680       -0.40530
C          7.66330        0.49510        0.59190
O          6.40900        0.74670        0.86260
H         -1.06760       -1.16290       -0.53430
H          0.37960       -2.16220       -0.80000
H          0.02480       -0.88170       -1.96350
H         -0.13970       -1.11260        1.85610
H          1.38630       -0.36520        2.45150
H          1.44370       -1.92190        1.52360
H         -1.32740        1.16980        1.32740
H         -1.90430        0.76300       -0.32950
H         -1.83760        2.45100        0.17520
H          0.81260        2.50950        1.63770
H          0.22840        3.68850        0.41970
H          1.82500        2.93580        0.17570
H         -0.38950        1.24150       -2.34370
H          1.18350        2.09580       -2.11800
H         -0.38560        2.95360       -1.87310
H          3.55890       -2.52130       -1.11730
H          3.48550       -0.31850       -3.23840
H          3.51570       -2.18200       -3.44420
H          8.58840       -0.88840       -0.85290
H          8.51090        0.96730        1.07040
