124

P          0.99880        0.07460        0.06660
C          0.05640        0.27900       -1.66380
C          0.15190       -0.84900       -2.73790
C         -0.59610       -2.04420       -2.25290
C         -2.07570       -1.74710       -1.81230
C         -2.29170       -0.41230       -1.07270
C         -1.43800        0.63960       -1.73500
C          0.22720       -1.56620        1.04450
C         -0.03650       -3.09310        0.57960
C          1.26080       -3.83650        0.28330
C          1.96160       -4.05870        1.61120
C          2.11340       -2.72560        2.32830
C          0.82440       -1.84910        2.43600
C          0.51030        1.83350        0.81850
C          0.91720        3.13680        0.05930
C         -0.09880        3.72260       -0.94820
C         -1.45310        4.04770       -0.26260
C         -2.02590        2.90050        0.61320
C         -0.92680        2.18820        1.45880
Ag         3.45880        0.07460        0.06660
Br         3.45880       -0.10110        2.65060
C          3.45880        0.22050       -2.07850
C          3.98030        1.35980       -2.52410
C          5.60880        0.07460        0.06660
N          6.34280        1.23890        0.11450
C          6.08940        2.75880        0.03650
C          5.05920        3.46180        0.78620
C          4.22840        2.80600        1.84350
C          5.22930        2.41240        2.94320
C          3.15530        3.65730        2.57900
C          4.86390        4.85910        0.64780
C          5.68280        5.63710       -0.11660
C          6.71770        5.05960       -0.77990
C          6.95400        3.65430       -0.75200
C          8.11950        3.21920       -1.62130
C          7.93010        3.71600       -3.06740
C          9.44910        3.75190       -1.06050
C          7.61890        0.75860        0.31330
C          7.64170       -0.63240        0.37180
N          6.41410       -1.15490        0.20430
C          6.24340       -2.74730        0.16100
C          6.82240       -3.66920        1.15980
C          7.79560       -3.35660        2.28710
C          7.26390       -3.79810        3.67100
C          9.11970       -4.11670        1.96760
C          6.54010       -5.07830        1.13410
C          5.80860       -5.69990        0.18460
C          5.36480       -4.98180       -0.84320
C          5.56900       -3.60310       -0.92630
C          4.97100       -3.13470       -2.21400
C          3.83170       -3.86050       -3.01060
C          4.35830       -2.01930       -1.68960
H          0.59030        1.11860       -2.14880
H          1.17840       -1.14600       -2.97960
H         -0.29610       -0.53630       -3.70800
H          0.12880       -2.24390       -1.50840
H         -0.56340       -2.91510       -2.93530
H         -2.52670       -2.56640       -1.20950
H         -2.66330       -1.68460       -2.74640
H         -2.03290       -0.41430       -0.01580
H         -3.37060       -0.14170       -1.09140
H         -1.56760        1.61680       -1.38700
H         -1.79200        0.75410       -2.78620
H         -0.78600       -1.23590        1.29730
H         -0.78210       -3.32030       -0.18310
H         -0.57430       -3.67530        1.36490
H          1.85520       -3.22820       -0.40900
H          1.09050       -4.82280       -0.19930
H          2.96870       -4.50470        1.44210
H          1.36270       -4.76570        2.22120
H          2.82770       -2.23310        1.66420
H          2.52540       -2.90240        3.34490
H          0.92900       -0.90310        2.99530
H          0.08940       -2.43730        3.04490
H          1.13750        1.77570        1.72780
H          1.93910        3.05700       -0.35620
H          0.89800        3.94710        0.80680
H         -0.19910        3.09160       -1.83430
H          0.30180        4.68680       -1.33940
H         -2.20280        4.39240       -1.02100
H         -1.28320        4.91900        0.40710
H         -2.66530        2.18970        0.07590
H         -2.81470        3.34900        1.26160
H         -1.36300        1.36260        2.05600
H         -0.70260        2.98950        2.20300
H          3.06850       -0.43470       -2.83740
H          4.35300        2.07360       -1.80330
H          4.02690        1.59810       -3.57930
H          3.69730        2.01430        1.29400
H          5.69690        3.33870        3.34720
H          6.04300        1.76640        2.56710
H          4.73940        1.91960        3.80080
H          3.60520        4.42880        3.23740
H          2.50350        3.00960        3.20010
H          2.52260        4.21860        1.89920
H          4.10650        5.43290        1.16560
H          5.52250        6.71100       -0.17120
H          7.33970        5.74640       -1.33280
H          8.16720        2.12700       -1.67500
H          7.92990        4.82820       -3.15050
H          6.96560        3.36690       -3.49010
H          8.76110        3.38600       -3.71990
H          9.49800        4.86380       -1.09220
H         10.29640        3.35790       -1.65560
H          9.58050        3.43840       -0.00460
H          8.49530        1.39480        0.45550
H          8.55200       -1.19250        0.52980
H          8.01400       -2.28240        2.34900
H          7.03640       -4.88280        3.74480
H          6.33590       -3.24670        3.91850
H          8.03220       -3.60780        4.44700
H          8.99350       -5.22330        1.91630
H          9.89360       -3.93980        2.73630
H          9.51130       -3.80970        0.97320
H          6.91110       -5.77560        1.86210
H          5.62280       -6.76670        0.20560
H          4.84940       -5.55930       -1.59830
H          5.76590       -2.85800       -2.95330
H          2.97690       -4.13670       -2.34970
H          4.17980       -4.75510       -3.55540
H          3.41210       -3.16750       -3.78410
H          3.29870       -2.10830       -1.40920
H          4.04140       -1.97450       -0.62590
H          5.14460       -1.24660       -1.79720
