45

N         -0.32800       -1.08200        0.00300
C         -0.45600       -0.18040       -0.98740
N          0.01250        1.03390       -0.60690
C          0.02000        2.26330       -1.37460
C         -0.60300        2.33480       -2.63920
C         -0.59440        3.52550       -3.37300
C          0.03530        4.66080       -2.86270
C          0.65130        4.61150       -1.61300
C          0.64240        3.42720       -0.87160
C          0.46110        0.86330        0.65990
C          0.22290       -0.43650        1.04090
Ag        -0.93010       -3.09380        0.01630
Br        -3.03740       -2.45410        1.37950
C          0.81920       -3.62480       -1.11530
C          1.71490       -2.74130       -1.56300
N         -1.53210       -5.10560        0.02970
C         -0.86840       -6.23160       -0.33210
N         -1.58050       -7.35260       -0.06250
C         -1.14330       -8.73450       -0.18620
C          0.18250       -9.05040       -0.56300
C          0.61450      -10.37960       -0.61570
C         -0.26220      -11.41620       -0.29860
C         -1.57510      -11.12810        0.07090
C         -2.01370       -9.80160        0.12960
C         -2.75550       -6.92440        0.42640
C         -2.71870       -5.55300        0.49950
H         -0.90670       -0.41210       -1.94140
H         -1.10630        1.48150       -3.06820
H         -1.07750        3.56750       -4.34060
H          0.04480        5.57960       -3.43450
H          1.13870        5.49280       -1.21590
H          1.13160        3.43600        0.09030
H          0.91650        1.61650        1.28590
H          0.46310       -0.89030        1.99290
H          1.05000       -4.63530       -1.37290
H          1.63720       -1.68220       -1.38580
H          2.57360       -3.09170       -2.12910
H          0.12960       -6.27320       -0.70140
H          0.90490       -8.28510       -0.80140
H          1.63590      -10.60590       -0.89480
H          0.07800      -12.44420       -0.33360
H         -2.25260      -11.93310        0.32080
H         -3.03390       -9.62650        0.43240
H         -3.58240       -7.53710        0.75220
H         -3.52900       -4.95880        0.87490
