86

P          0.96880       -0.08530        0.04180
C         -0.06880       -1.71000        0.36190
C         -1.63180       -1.75200        0.34470
C         -2.15460       -1.37020       -1.00540
C         -1.70260       -2.43270       -2.01450
C         -0.17700       -2.76950       -1.95310
C          0.32280       -2.93110       -0.53530
C          0.45210        0.91180        1.66410
C          1.01580        2.34780        1.92360
C          0.39040        3.46020        1.03700
C         -1.13640        3.52170        1.11950
C         -1.74820        2.13210        0.94180
C         -1.07630        1.16580        1.93530
C          0.59600        0.81120       -1.77250
C          1.38680        2.09540       -2.26760
C          2.65170        1.83020       -3.11280
C          2.35360        0.98900       -4.34910
C          1.61000       -0.28000       -3.94140
C          0.33040        0.13220       -3.18000
Ag         3.42880       -0.08530        0.04180
Br         3.68460        2.40070        0.01670
C          3.46570       -2.10570        0.40810
C          2.94410       -2.48290        1.58120
C          5.57880       -0.08530        0.04180
N          6.33970       -0.80780       -0.81230
C          5.87380       -1.52340       -2.00420
C          6.42800       -0.80840       -3.25290
C          6.31040       -2.98670       -2.00650
C          7.61420       -0.54830       -0.47320
C          7.61650        0.32200        0.60380
N          6.33980        0.60750        0.92210
C          5.87450        1.34460        2.11370
C          6.36030        0.62170        3.37370
C          6.35270        2.79670        2.11070
H          0.23550       -2.02270        1.38250
H         -2.15840       -1.24480        1.12530
H         -1.96470       -2.79300        0.58940
H         -1.81090       -0.35260       -1.23550
H         -3.26480       -1.32650       -0.97140
H         -2.02880       -2.12470       -3.03260
H         -2.25430       -3.35670       -1.76310
H          0.52060       -2.03540       -2.30240
H          0.02620       -3.65120       -2.59090
H          1.40860       -3.12180       -0.56330
H         -0.13620       -3.86090       -0.13660
H          0.82370        0.28350        2.49830
H          2.10150        2.34710        1.93740
H          0.76940        2.64370        2.96930
H          0.60550        3.26420        0.01550
H          0.80840        4.45970        1.29160
H         -1.54120        4.22400        0.35190
H         -1.42830        3.90870        2.11700
H         -1.65010        1.76870       -0.08490
H         -2.84030        2.21000        1.13010
H         -1.64170        0.28700        2.08390
H         -1.21210        1.61460        2.94370
H         -0.39950        1.20500       -1.57830
H          1.65480        2.83050       -1.54030
H          0.70000        2.67080       -2.94430
H          3.40850        1.31040       -2.50140
H          3.06520        2.80590       -3.46110
H          3.29540        0.74990       -4.89060
H          1.71120        1.57120       -5.05440
H          2.25260       -0.93420       -3.31670
H          1.34720       -0.82340       -4.87680
H         -0.46360       -0.60010       -3.21460
H         -0.18480        0.86020       -3.85560
H          3.94310       -2.82990       -0.23000
H          2.49390       -1.73440        2.23090
H          2.95160       -3.51570        1.90690
H          4.76520       -1.47230       -2.05920
H          7.54050       -0.83550       -3.27020
H          6.11380        0.25860       -3.25850
H          6.05670       -1.28200       -4.18530
H          7.41710       -3.06660       -1.98780
H          5.93200       -3.48000       -2.92930
H          5.89660       -3.51800       -1.12930
H          8.49640       -0.93260       -0.97900
H          8.48770        0.70030        1.11690
H          4.77950        1.31580        2.15430
H          7.47170        0.61340        3.43740
H          5.99240       -0.42040        3.37520
H          5.96780        1.13200        4.28300
H          7.46360        2.85780        2.14010
H          5.94480        3.31860        3.00740
H          5.99720        3.33890        1.21260
