52

P          0.91220        0.02450        0.04110
C          0.21560        0.69290       -1.47820
C         -1.12850        0.70390       -1.84600
C         -1.50660        1.22980       -3.09760
C         -0.54390        1.75150       -3.97160
C          0.79830        1.76000       -3.59850
C          1.16930        1.24280       -2.36490
C          0.59830       -1.73140       -0.41290
C          0.32950       -2.21860       -1.71160
C          0.06380       -3.58010       -1.92380
C          0.03310       -4.46940       -0.84880
C          0.29180       -4.00760        0.43770
C          0.58820       -2.66030        0.64870
C          0.04160        0.95760        1.33990
C         -0.38260        0.25490        2.49640
C         -0.82170        0.94250        3.62250
C         -0.87830        2.33680        3.62200
C         -0.49840        3.05140        2.47840
C         -0.02460        2.36890        1.34250
Ag         3.37220        0.02450        0.04110
Br         3.34000       -1.34580       -2.05510
C          3.62390        1.20460        1.81670
C          2.78870        1.59130        2.76110
N          5.47220        0.02450        0.04110
C          6.26370        1.12700        0.33950
Cl         5.64920        2.79390        0.42510
C          7.65760        1.05460        0.26240
C          8.27060       -0.13560       -0.09230
C          7.48500       -1.22660       -0.43450
C          6.09170       -1.11290       -0.40350
H         -1.88120        0.28330       -1.18860
H         -2.54610        1.23250       -3.40040
H         -0.82660        2.15320       -4.93500
H          1.55390        2.16220       -4.26480
H          2.21920        1.26170       -2.09600
H          0.33620       -1.57730       -2.57930
H         -0.12300       -3.94810       -2.92380
H         -0.18790       -5.51730       -1.01010
H          0.26250       -4.69340        1.27660
H          0.79330       -2.35520        1.66030
H         -0.30680       -0.81420        2.57640
H         -1.09640        0.38700        4.52580
H         -1.20570        2.85670        4.51760
H         -0.53170        4.13320        2.48890
H          0.31400        2.92480        0.48390
H          4.61840        1.45840        2.12990
H          1.79720        1.30710        2.79890
H          3.14720        2.13140        3.63010
H          8.26460        1.93680        0.43110
H          9.34970       -0.19620       -0.14570
H          7.95180       -2.15680       -0.72870
H          5.51400       -1.98710       -0.65300
