76

P          1.04850       -0.04270        0.07630
C          0.21120       -0.41900       -1.49110
C         -0.08450        0.62520       -2.40260
C         -0.53140        0.35150       -3.70260
C         -0.67350       -0.96780       -4.12920
C         -0.34320       -2.01280       -3.27050
C          0.11930       -1.73720       -1.95890
C          0.58100       -1.46910        1.07910
C          1.52760       -2.21350        1.78860
C          1.13210       -3.33550        2.52960
C         -0.21150       -3.72680        2.55330
C         -1.16080       -2.99170        1.84390
C         -0.76930       -1.86460        1.11780
C          0.40390        1.61600        0.38070
C         -0.99300        1.78910        0.43610
C         -1.55160        3.06330        0.53440
C         -0.72040        4.18160        0.57690
C          0.67090        4.02210        0.53460
C          1.23490        2.73970        0.43860
Ag         3.50850       -0.04270        0.07630
Br         3.50850        0.70990        2.55460
C          3.50850       -0.66740       -1.98090
C          3.22710        0.05480       -3.06160
P          5.96850       -0.04270        0.07630
N          7.11330       -1.05520       -0.91520
C          6.70580       -1.21050       -2.31950
C          8.57030       -1.25770       -0.76800
C          9.04420       -1.09060        0.61780
N          8.73720        0.23830        1.17390
C          8.67210        1.57830        0.51180
C          7.85120        1.72300       -0.81540
N          6.38350        1.43310       -0.80500
C          5.60090        2.55260       -0.28660
N          6.19860       -0.45810        1.80960
C          5.73110       -1.78860        2.20570
C          6.97750        0.35000        2.78120
C          8.47300        0.18910        2.60290
H          0.05420        1.66530       -2.14610
H         -0.75870        1.16610       -4.38160
H         -1.00760       -1.17710       -5.13520
H         -0.41990       -3.03810       -3.61460
H          0.41080       -2.58080       -1.34880
H          2.56000       -1.93240        1.76870
H          1.86610       -3.90860        3.07930
H         -0.51500       -4.60350        3.11690
H         -2.20120       -3.29800        1.85200
H         -1.52420       -1.32070        0.56230
H         -1.65910        0.94010        0.36620
H         -2.62910        3.18250        0.55270
H         -1.15630        5.17120        0.63180
H          1.30840        4.89340        0.55390
H          2.30640        2.63150        0.37020
H          3.81620       -1.68960       -2.12510
H          2.99320        1.10830       -3.01060
H          3.31940       -0.43040       -4.03370
H          5.81490       -1.84080       -2.37620
H          7.44750       -1.78770       -2.91600
H          6.55450       -0.22780       -2.81230
H          9.16790       -0.65780       -1.46810
H          8.78510       -2.31530       -1.05640
H         10.12540       -1.31640        0.69000
H          8.51280       -1.88600        1.19530
H          9.71110        1.91650        0.33020
H          8.23310        2.30890        1.22250
H          8.31740        1.17650       -1.64390
H          8.00040        2.77010       -1.15180
H          5.83710        3.47660       -0.85650
H          5.80360        2.72390        0.78910
H          4.52130        2.34920       -0.43930
H          4.75480       -1.98390        1.72490
H          5.56660       -1.83940        3.30300
H          6.43530       -2.57950        1.89030
H          6.70520        1.40590        2.65110
H          6.74110        0.06660        3.82800
H          8.81660       -0.77820        3.04170
H          9.04140        0.96790        3.15450
