72

P          1.02830        0.09450        0.01640
F         -0.63070       -0.00430        0.21600
F          0.98880        1.74170        0.31380
F          0.91440       -0.53790       -1.52990
Au         3.48830        0.09450        0.01640
Br         3.22730        1.39370       -2.13710
C          3.48760       -0.59460        1.97070
C          3.41630        0.28780        2.97580
P          5.94830        0.09450        0.01640
C          6.99690       -0.04490        1.60540
C          7.13700       -1.27240        2.35760
C          6.38880       -2.55620        2.07920
C          8.06230       -1.38400        3.42160
C          8.81890       -0.29510        3.84110
C          9.86610       -0.42630        4.91540
C          8.58360        0.93550        3.27070
C          7.68890        1.09710        2.20330
C          7.45860        2.52870        1.82550
C          6.49040       -1.58720       -0.79590
C          5.61090       -2.39080       -1.63090
C          4.29920       -1.95490       -2.18790
C          5.97730       -3.67370       -2.08780
C          7.20870       -4.22660       -1.80050
C          7.57460       -5.60630       -2.29280
C          8.12040       -3.46860       -1.09270
C          7.81960       -2.17170       -0.61270
C          9.00800       -1.51010        0.05640
C          6.16020        1.68110       -1.00920
C          5.55180        2.94180       -0.62410
C          4.57470        3.12030        0.50570
C          5.81780        4.13380       -1.33310
C          6.64690        4.13260       -2.44990
C          6.97360        5.42080       -3.17550
C          7.16290        2.93610       -2.90060
C          6.93810        1.71570       -2.21340
C          7.54840        0.50000       -2.83480
H          3.52490       -1.65770        2.18800
H          3.36050        1.35130        2.77630
H          3.40460       -0.03900        4.00750
H          5.58830       -2.44960        1.33600
H          5.90430       -2.89540        3.02000
H          7.10720       -3.33880        1.76620
H          8.20870       -2.33260        3.91680
H          9.99260       -1.48050        5.24340
H          9.61620        0.20150        5.79420
H         10.84220       -0.08430        4.50440
H          9.11080        1.79260        3.68300
H          8.02340        3.25060        2.45540
H          6.41750        2.73020        2.11720
H          7.70320        2.75500        0.78000
H          4.27020       -0.87950       -2.21580
H          3.43310       -2.45700       -1.71360
H          4.27200       -2.21660       -3.27690
H          5.29270       -4.25270       -2.70360
H          6.74680       -6.07800       -2.86600
H          7.81070       -6.26600       -1.43030
H          8.46460       -5.55360       -2.95510
H          9.09810       -3.90690       -0.91870
H          9.95630       -1.89000       -0.38360
H          9.14010       -1.83980        1.09640
H          9.03590       -0.41460       -0.09370
H          4.40160        2.18280        1.04430
H          3.60340        3.47430        0.09660
H          4.91670        3.91880        1.20090
H          5.37600        5.06890       -1.00870
H          6.51990        6.31170       -2.69030
H          6.62730        5.37810       -4.23000
H          8.07620        5.56560       -3.17320
H          7.77130        2.95610       -3.79570
H          8.04940        0.72900       -3.80150
H          6.75200       -0.23300       -3.06820
H          8.30980        0.07450       -2.16220
