79

P          1.06300        0.04470        0.06350
C         -0.03680       -0.17470        1.64410
C         -1.46960       -0.27250        1.65930
C         -2.38340       -0.06120        0.50200
C         -2.18240       -0.60720        2.83540
C         -1.56060       -0.77200        4.05710
C         -2.36090       -1.18570        5.27470
C         -0.21330       -0.51150        4.14160
C          0.57390       -0.18910        2.99980
C          2.01090        0.15120        3.36690
C          0.12700        1.61190       -0.72990
C         -0.02950        2.98970       -0.20480
C          0.58220        3.63320        1.02000
C         -0.89930        3.94380       -0.83750
C         -1.63600        3.64780       -1.97180
C         -2.62480        4.61260       -2.61030
C         -1.48160        2.40620       -2.51670
C         -0.64770        1.41230       -1.95140
C         -0.72900        0.11430       -2.67510
C          0.94780       -1.68210       -0.78860
C          0.11930       -2.83860       -0.45300
C         -0.63960       -3.12390        0.81150
C         -0.04950       -3.89930       -1.38590
C          0.58990       -3.91860       -2.61590
C          0.37100       -5.02710       -3.62060
C          1.47060       -2.90130       -2.90970
C          1.67570       -1.81810       -2.03330
C          2.70810       -0.82940       -2.50640
Au         3.52300        0.04470        0.06350
Br         3.47050       -2.19320        1.22770
C          3.60080        1.84240       -1.03740
C          3.35280        3.00590       -0.45860
N          5.62300        0.04470        0.06350
C          6.31680       -0.62920        1.05690
F          5.70980       -1.17090        2.12870
C          7.71510       -0.63940        1.11950
C          8.45760       -0.00790        0.14330
F          9.81270       -0.03120        0.17850
C          7.79740        0.65320       -0.86840
C          6.40170        0.70020       -0.88440
F          5.91150        1.28710       -1.98400
H         -2.05570        0.73640       -0.14060
H         -3.29430        0.46140        0.87870
H         -2.70790       -1.00250        0.02770
H         -3.25720       -0.73380        2.80520
H         -3.43400       -1.34820        5.02820
H         -2.30390       -0.42240        6.07740
H         -1.97000       -2.14990        5.66940
H          0.23530       -0.58620        5.12950
H          2.16870        0.15750        4.47590
H          2.26140        1.18080        3.04780
H          2.75300       -0.55590        3.01410
H          1.24750        2.98890        1.60750
H         -0.21490        4.02300        1.69300
H          1.14390        4.55000        0.68810
H         -1.04190        4.94400       -0.42700
H         -2.72280        5.57310       -2.06070
H         -3.63880        4.14710       -2.63580
H         -2.34020        4.83580       -3.66220
H         -2.06960        2.18860       -3.40600
H         -1.36230        0.15520       -3.58390
H         -1.16700       -0.65270       -2.00840
H          0.25460       -0.12300       -3.05300
H         -0.40840       -2.49060        1.65340
H         -0.31240       -4.11820        1.18690
H         -1.73350       -3.18400        0.61630
H         -0.70550       -4.73460       -1.15290
H         -0.35700       -5.78710       -3.26530
H          1.33130       -5.53780       -3.84290
H         -0.02280       -4.60450       -4.57330
H          1.99680       -2.95480       -3.85760
H          3.12800       -1.08700       -3.50240
H          3.56730       -0.88360       -1.81960
H          2.31070        0.19460       -2.57900
H          3.88900        1.88140       -2.07510
H          3.14240        3.03990        0.59430
H          3.43940        3.93010       -1.02380
H          8.22120       -1.12900        1.94190
H          8.36480        1.12660       -1.66110
