82

P          1.05010        0.02600        0.08250
C         -0.26670       -1.19530        0.43870
C          0.78230        0.96710        1.61910
C          0.27190        0.51060       -1.45760
C         -0.80550        1.40950       -1.45810
C         -1.55860        1.59720       -2.62300
C         -1.23900        0.89060       -3.78700
C         -0.16210       -0.00040       -3.79060
C          0.58760       -0.19580       -2.62710
Au         3.51010        0.02600        0.08250
Br         3.51010        2.50620       -0.66380
C          3.51010       -2.03280        0.70200
C          2.63210       -2.95090        1.10040
P          5.97010        0.02600        0.08250
C          7.12020        1.60280        0.41620
C          8.67730        1.51890        0.32970
C          9.07770        1.19180       -1.07700
C          8.64520        2.33270       -1.99650
C          7.18800        2.73850       -1.77210
C          6.82300        2.92750       -0.32270
C          6.52040       -0.88780        1.82690
C          6.15990       -2.36150        2.33650
C          6.92480       -3.42320        1.54350
C          8.48160       -3.23760        1.61470
C          8.95650       -1.75860        1.46500
C          8.04070       -0.86340        2.31510
C          6.32220       -0.67600       -1.88940
C          5.89620       -0.04470       -3.19440
C          4.89490        1.07910       -3.50510
C          6.38610       -0.51140       -4.48330
C          7.20230       -1.61690       -4.63520
C          7.74590       -2.16710       -5.96400
C          7.51530       -2.30070       -3.54420
C          7.09950       -1.93230       -2.23570
C          7.56060       -3.04340       -1.39520
H         -1.28840       -0.78490        0.38430
H         -0.12470       -1.60900        1.45870
H         -0.15550       -2.03580       -0.28580
H         -0.30890        1.08010        1.80540
H          1.24360        1.96910        1.56080
H          1.21740        0.39710        2.46840
H         -1.10010        1.91720       -0.54870
H         -2.41090        2.26450       -2.61540
H         -1.83810        1.01700       -4.67990
H          0.07040       -0.56470       -4.68470
H          1.38350       -0.93060       -2.62520
H          4.48870       -2.40900        0.53240
H          1.59480       -2.79350        1.25740
H          3.01070       -3.95940        1.27450
H          6.87510        1.86430        1.47360
H          9.22360        0.83950        0.95260
H          9.12340        2.49820        0.63940
H          8.60710        0.22880       -1.32850
H         10.17430        1.05230       -1.13400
H          8.78650        2.00450       -3.04750
H          9.27970        3.21230       -1.78460
H          6.62140        1.88620       -2.00830
H          6.90960        3.61920       -2.38740
H          5.80390        3.26900       -0.16960
H          7.40700        3.78130        0.09020
H          6.04020       -0.26160        2.58490
H          5.10010       -2.56710        2.44940
H          6.48140       -2.51710        3.39220
H          6.44330       -3.28930        0.60640
H          6.66470       -4.45390        1.85290
H          8.99470       -3.91570        0.89250
H          8.78380       -3.58060        2.61580
H          8.97030       -1.29940        0.46630
H         10.02310       -1.72620        1.76990
H          8.39080        0.13840        2.54300
H          8.17630       -1.27830        3.34490
H          5.12660        2.11220       -3.24670
H          3.91020        0.78480       -3.13080
H          4.74760        1.22330       -4.60200
H          6.13730       -0.07800       -5.42620
H          7.47040       -1.54090       -6.82990
H          7.37260       -3.19470       -6.12760
H          8.86720       -2.22980       -5.91870
H          8.08650       -3.21320       -3.73520
H          8.30530       -3.76680       -1.79970
H          6.71050       -3.74640       -1.27260
H          8.14470       -2.63010       -0.66240
