99

P          1.06530        0.04130       -0.06350
C          0.27210       -1.01940       -1.30800
C         -1.10290       -1.22450       -1.44540
C         -1.57460       -2.14330       -2.41330
C         -3.02540       -2.43630       -2.56960
C         -0.65520       -2.81860       -3.23710
C          0.70470       -2.57820       -3.12380
C          1.16720       -1.67210       -2.17240
C          0.69950       -1.04050        1.37570
C         -0.07060       -2.23320        1.35260
C         -0.46310       -2.86020        2.54980
C         -1.35390       -4.07090        2.53540
C         -0.05830       -2.32490        3.77650
C          0.72650       -1.17420        3.81290
C          1.09560       -0.53680        2.62620
C          0.22170        1.63400       -0.17690
C         -0.56200        2.04300        0.92310
C         -1.26260        3.25890        0.90010
C         -2.10400        3.69080        2.06340
C         -1.17960        4.07060       -0.23750
C         -0.40450        3.67200       -1.33200
C          0.29530        2.45720       -1.30590
Au         3.52530        0.04130       -0.06350
Br         3.52530       -2.54370        0.09710
C          3.52530        2.18720       -0.19670
C          3.51680        2.80080       -1.37290
P          5.98530        0.04130       -0.06350
C          6.64280       -1.73740       -0.22020
C          6.19070       -2.42880       -1.54260
C          7.18570       -2.26020       -2.68040
C          8.56620       -2.80770       -2.24940
C          9.09700       -2.23920       -0.89440
C          8.03130       -2.28370        0.19140
C          6.79970        1.14120       -1.50020
C          6.68090        2.69990       -1.59880
C          7.50490        3.50770       -0.61090
C          8.99710        3.07900       -0.66150
C          9.24760        1.55020       -0.74990
C          8.32190        0.96340       -1.81810
C          6.45300        0.35820        1.78700
C          6.08180       -0.35180        2.99620
C          5.21760       -1.55890        3.10530
C          6.55980        0.06450        4.27020
C          7.40660        1.14030        4.41270
C          7.81160        1.82150        3.29390
C          7.34820        1.41970        2.04190
H         -1.79570       -0.71510       -0.79010
H         -3.63900       -1.82680       -1.87530
H         -3.20940       -3.51150       -2.35810
H         -3.33900       -2.21500       -3.61380
H         -1.00220       -3.54110       -3.98180
H          1.41260       -3.09680       -3.76240
H          2.23200       -1.50760       -2.10100
H         -0.42730       -2.67270        0.44110
H         -1.62510       -4.37440        1.50180
H         -2.29680       -3.84260        3.07970
H         -0.84860       -4.92190        3.03690
H         -0.36630       -2.79010        4.70550
H          1.02190       -0.75570        4.76620
H          1.66220        0.38390        2.68800
H         -0.63490        1.41560        1.80060
H         -2.04860        2.97140        2.91360
H         -3.16090        3.79660        1.76400
H         -1.74260        4.68080        2.44600
H         -1.71550        5.01180       -0.27460
H         -0.34810        4.30810       -2.20370
H          0.88310        2.15680       -2.16310
H          2.96720        2.79110        0.51310
H          3.76390        2.27230       -2.28480
H          3.27720        3.86350       -1.42060
H          6.04690       -2.20250        0.55990
H          5.20180       -2.07380       -1.89150
H          6.10680       -3.52400       -1.35640
H          7.19440       -1.21670       -3.01040
H          6.82900       -2.83330       -3.56550
H          9.30450       -2.63290       -3.05700
H          8.44180       -3.89910       -2.12290
H          9.50780       -1.23510       -0.91490
H          9.97670       -2.84130       -0.58570
H          8.37640       -1.85490        1.15750
H          7.88200       -3.37690        0.37150
H          6.27350        0.76030       -2.39320
H          5.71440        3.09470       -1.55930
H          7.02570        2.99830       -2.61610
H          6.97920        3.46850        0.34930
H          7.44120        4.58700       -0.85820
H          9.56790        3.54020        0.17490
H          9.40010        3.50040       -1.60710
H          9.12230        0.97340        0.18090
H         10.31540        1.39460       -1.02210
H          8.57220       -0.03110       -2.10690
H          8.58080        1.48250       -2.76980
H          4.80440       -1.86300        2.16650
H          4.36590       -1.35640        3.79270
H          5.82800       -2.38790        3.52360
H          6.27610       -0.46750        5.17330
H          7.76230        1.44860        5.39430
H          8.49480        2.65450        3.38370
H          7.74470        1.96120        1.27920
