75

P          1.03400       -0.08860       -0.03160
C          0.38130       -1.17870        1.25060
C          1.36510       -1.89180        1.95270
C          1.03040       -2.76330        2.98520
C          2.10990       -3.52730        3.71200
C         -0.31340       -2.89510        3.35530
C         -1.30800       -2.16630        2.68010
C         -0.96290       -1.30040        1.62400
C          0.41050        1.51410        0.50110
C          0.30330        1.87290        1.85060
C         -0.29750        3.07190        2.22750
C         -0.47110        3.44470        3.66830
C         -0.75630        3.94970        1.22800
C         -0.64520        3.60740       -0.12160
C         -0.07100        2.39000       -0.48730
C          0.52240       -1.04330       -1.49040
C         -0.34990       -2.14940       -1.46540
C         -0.78270       -2.75190       -2.65450
C         -1.74410       -3.90470       -2.61870
C         -0.33210       -2.26000       -3.88420
C          0.53150       -1.16190       -3.92420
C          0.94770       -0.55390       -2.73850
Au         3.49400       -0.08860       -0.03160
Br         3.33920       -2.41640       -0.92780
C          3.51650        1.93550        0.45360
C          3.19320        2.83870       -0.46980
P          5.95400       -0.08860       -0.03160
C          7.06200        1.00830       -1.08200
C          6.73250        2.50350       -1.08000
C          8.57520        0.78880       -0.98670
C          6.56080        0.36210        1.67370
C          6.12050        1.64280        2.37450
C          6.19230       -0.81720        2.59090
C          6.38920       -1.72660       -0.70700
H          2.40920       -1.77930        1.68280
H          3.12010       -3.30260        3.30090
H          1.93340       -4.61720        3.59860
H          2.11570       -3.26810        4.79160
H         -0.58700       -3.55270        4.17240
H         -2.33760       -2.26950        2.97720
H         -1.73150       -0.74120        1.10980
H          0.65370        1.17640        2.62000
H         -0.05750        2.66150        4.34040
H         -1.55350        3.55320        3.89000
H          0.04180        4.40400        3.88070
H         -1.24100        4.88650        1.49760
H         -1.02460        4.27740       -0.88790
H         -0.00960        2.12340       -1.53260
H         -0.73320       -2.55060       -0.54350
H         -2.06300       -4.14060       -1.58000
H         -1.26630       -4.80310       -3.05590
H         -2.65600       -3.65030       -3.20310
H         -0.66260       -2.71220       -4.80890
H          0.86470       -0.77230       -4.87810
H          1.60120        0.31030       -2.79440
H          3.94680        2.35210        1.32850
H          2.92540        2.52760       -1.47190
H          3.32870        3.89720       -0.25320
H          6.79100        0.69490       -2.12500
H          6.97940        3.00840       -0.13470
H          5.67260        2.67440       -1.35150
H          7.32670        3.02400       -1.86930
H          8.97640        1.14050       -0.02170
H          9.07060        1.36680       -1.80140
H          8.83840       -0.26770       -1.16050
H          7.66640        0.38040        1.61660
H          5.09130        1.53680        2.75900
H          6.25650        2.54900        1.77000
H          6.73220        1.77350        3.29230
H          5.08670       -0.92340        2.66250
H          6.60350       -0.67540        3.61300
H          6.60720       -1.76920        2.19640
H          6.04220       -1.81820       -1.75600
H          5.94500       -2.51850       -0.07300
H          7.48160       -1.88930       -0.67200
