92

P          1.02680        0.01200        0.09560
C          0.50750       -1.81370       -0.53100
C         -0.29470       -2.25960       -1.67690
C         -0.74420       -1.50120       -2.84680
C         -0.74800       -3.62120       -1.81070
C         -0.38220       -4.61660       -0.93920
C         -0.91490       -6.03230       -1.09130
C          0.52020       -4.28810        0.04990
C          0.98050       -2.94720        0.25560
C          1.98500       -2.81210        1.36720
C          0.24280        0.09450        1.89920
C         -0.54700       -0.95490        2.57060
C         -1.15870       -2.20370        1.99920
C         -0.89830       -0.86840        3.93720
C         -0.63050        0.23950        4.70250
C         -1.03130        0.29650        6.15900
C         -0.03990        1.32150        4.08230
C          0.38150        1.28760        2.72890
C          0.87510        2.61860        2.24640
C          0.58190        1.49650       -1.11310
C         -0.69240        1.79990       -1.83530
C         -1.98840        1.00650       -1.85760
C         -0.84330        2.98420       -2.59820
C          0.09790        3.98990       -2.65060
C         -0.14130        5.26040       -3.43450
C          1.23860        3.81090       -1.91590
C          1.47850        2.64380       -1.15290
C          2.71310        2.80170       -0.33910
Au         3.48680        0.01200        0.09560
Br         3.48680       -0.53950       -2.43500
C          3.48680        0.46990        2.19630
C          4.17290        1.47960        2.73650
C          5.63680        0.01200        0.09560
N          6.46360       -0.04050        1.13090
C          6.25820       -0.29920        2.54650
C          7.84690        0.02130        0.71290
C          7.79400       -0.47620       -0.69010
N          6.48280       -0.04610       -1.09810
C          6.31050        0.42730       -2.44180
C          7.00630       -0.18640       -3.50930
C          6.74290        0.17600       -4.83420
C          5.78980        1.15710       -5.11370
C          5.14900        1.81920       -4.06560
C          5.43930        1.47370       -2.74250
H         -0.24610       -0.52600       -2.89550
H         -1.86140       -1.52720       -2.87870
H         -0.42580       -2.02430       -3.78000
H         -1.40040       -3.90220       -2.63320
H         -1.64310       -6.13220       -1.93050
H         -1.45420       -6.34760       -0.16890
H         -0.09170       -6.75430       -1.27370
H          0.84730       -5.09370        0.69130
H          2.21200       -3.79420        1.84000
H          1.63920       -2.15970        2.17430
H          2.93230       -2.42550        0.94120
H         -1.32560       -2.18930        0.92640
H         -2.22030       -2.27410        2.33280
H         -0.66610       -3.12330        2.40480
H         -1.43210       -1.68360        4.42440
H         -1.48620       -0.65750        6.50740
H         -1.77340        1.10590        6.32490
H         -0.14140        0.49190        6.79440
H          0.09080        2.21300        4.68830
H          0.40580        3.43300        2.85150
H          0.47190        2.85120        1.24950
H          1.95320        2.76170        2.40620
H         -2.30430        0.58430       -0.89600
H         -2.12770        0.49960       -2.82560
H         -2.84870        1.67940       -2.09530
H         -1.76390        3.18960       -3.15270
H         -1.11410        5.24320       -3.97700
H          0.66130        5.40780       -4.18420
H         -0.16120        6.13850       -2.75020
H          1.94990        4.64090       -1.89620
H          2.60480        3.69120        0.31740
H          3.56650        3.02880       -0.97700
H          2.90550        1.96670        0.30950
H          2.74610       -0.00200        2.82790
H          4.83660        2.08840        2.13420
H          4.03910        1.71470        3.78930
H          5.34270       -0.86740        2.76640
H          6.47410        0.61340        3.14670
H          7.01200       -1.03010        2.90370
H          8.55780       -0.58180        1.32160
H          8.15050        1.09210        0.72800
H          7.79240       -1.58810       -0.67440
H          8.64140       -0.08730       -1.29770
H          7.71900       -0.98110       -3.32680
H          7.25440       -0.32700       -5.64530
H          5.54770        1.40310       -6.13920
H          4.40320        2.57500       -4.27310
H          4.94040        1.94510       -1.93900
