99

P          0.93110       -0.02010       -0.06960
C         -0.19900       -1.45250        0.57860
C          0.08390       -2.94830        0.70000
C          1.13450       -3.88510        0.06680
C         -0.74260       -3.75610        1.52260
C         -1.85460       -3.24870        2.15750
C         -2.19290       -1.93230        1.99960
C         -1.37260       -1.06910        1.27920
C          0.58020        1.21610        1.25350
C          0.86650        1.04150        2.64960
C          1.60100       -0.12270        3.23150
C          0.42500        2.00080        3.58060
C         -0.29600        3.11500        3.17110
C         -0.56520        3.30930        1.82030
C         -0.12880        2.37340        0.87630
C          0.48650        0.39690       -1.81780
C         -0.80510        0.74780       -2.36690
C         -2.08750        0.91180       -1.57690
C         -0.98110        0.97150       -3.74100
C          0.12570        0.90640       -4.60940
C          1.37010        0.60520       -4.10120
C          1.54280        0.35230       -2.74720
Au         3.39110       -0.02010       -0.06960
Br         3.39110        2.32050       -1.17850
C          3.39110       -1.96310        0.85080
C          4.11530       -2.69770        1.69800
P          5.85110       -0.02010       -0.06960
C          6.84880        1.51270        0.63600
C          8.39200        1.83570        0.80110
C          9.06490        2.82330       -0.17850
C          8.18040        4.02800       -0.51560
C          6.71640        3.63410       -0.79230
C          6.18290        2.89260        0.44840
C          6.86170       -1.50920        0.66440
C          6.49350       -2.89620        0.00790
C          7.23780       -3.23090       -1.29460
C          8.73730       -3.21570       -1.08540
C          9.17880       -1.86940       -0.50880
C          8.41780       -1.60780        0.80380
C          6.14330        0.08100       -1.90240
C          5.44770       -0.73540       -2.87150
C          4.33220       -1.68780       -2.55860
C          5.88050       -0.77930       -4.20720
C          7.02310       -0.10130       -4.61630
C          7.74660        0.62260       -3.68770
C          7.30380        0.68200       -2.37490
H          1.76010       -3.43810       -0.71540
H          0.66890       -4.77830       -0.37600
H          1.77330       -4.29930        0.89550
H         -0.52590       -4.79500        1.68750
H         -2.46280       -3.90840        2.77370
H         -3.07290       -1.55050        2.49740
H         -1.68900       -0.03470        1.30170
H          1.92770       -0.82760        2.46980
H          0.95350       -0.66840        3.94770
H          2.50270        0.24410        3.77740
H          0.62110        1.86760        4.63920
H         -0.64370        3.83000        3.90250
H         -1.12890        4.17270        1.50670
H         -0.37570        2.55070       -0.16070
H         -1.92690        0.82380       -0.51980
H         -2.84220        0.16720       -1.90750
H         -2.48820        1.91570       -1.75410
H         -1.94880        1.23840       -4.14060
H         -0.02260        1.10290       -5.66770
H          2.22490        0.57050       -4.77850
H          2.51000        0.13380       -2.38370
H          2.44000       -2.26470        0.81220
H          5.04030       -2.44870        2.11530
H          3.70330       -3.61670        2.10040
H          6.57580        1.26210        1.68490
H          9.07490        1.01140        0.90840
H          8.44890        2.36660        1.78220
H          9.40270        2.32930       -1.09900
H         10.01620        3.18550        0.27470
H          8.62330        4.57940       -1.37500
H          8.17310        4.71920        0.35460
H          6.59700        3.03160       -1.70990
H          6.14120        4.57110       -0.95080
H          5.10310        2.80560        0.52640
H          6.40770        3.54320        1.32170
H          6.61820       -1.41140        1.72860
H          5.43600       -3.00760       -0.24480
H          6.75410       -3.70290        0.73380
H          6.99590       -2.51060       -2.08250
H          6.92780       -4.24070       -1.64880
H          9.25870       -3.42170       -2.05130
H          9.01570       -4.03440       -0.37930
H          8.99990       -1.04770       -1.22840
H         10.26820       -1.92780       -0.30620
H          8.84890       -0.83030        1.41970
H          8.64190       -2.48760        1.45340
H          4.04250       -1.66230       -1.51070
H          4.65980       -2.72360       -2.79860
H          3.46070       -1.51200       -3.21210
H          5.36180       -1.39480       -4.93640
H          7.36390       -0.17940       -5.64200
H          8.67120        1.10320       -3.98350
H          7.91890        1.17220       -1.68580
