82

P          1.07740       -0.02550        0.05800
C          0.14310       -1.61520        0.10000
C          0.49980       -2.72250       -0.76780
C          1.56970       -2.70240       -1.84100
C         -0.10140       -3.97670       -0.56710
C         -1.08210       -4.15330        0.39610
C         -1.49060       -3.07630        1.17730
C         -0.87340       -1.81920        1.04990
C          0.83620        0.87580        1.64240
C          0.07060        2.08990        1.85080
C         -0.72130        2.83670        0.80300
C          0.01850        2.64600        3.14490
C          0.69050        2.06190        4.20750
C          1.42740        0.90100        4.01030
C          1.49560        0.31710        2.74480
C          0.33380        0.63240       -1.49190
C          1.01830        1.01890       -2.68140
C          2.48970        0.88140       -2.90250
C          0.28280        1.54140       -3.76760
C         -1.10340        1.66440       -3.70730
C         -1.78280        1.23830       -2.57580
C         -1.07490        0.71740       -1.49370
Au         3.53740       -0.02550        0.05800
Br         3.53740        2.54500       -0.25930
C          3.53740       -2.15930        0.32130
C          4.45720       -3.12420        0.41860
P          5.99740       -0.02550        0.05800
N          6.99440        1.33510        0.61080
C          6.60870        1.52500        2.02800
C          8.44800        1.27430        0.48830
O          6.24880        0.26730       -1.54220
C          6.41660       -0.83780       -2.31000
C          5.63230       -0.90140       -3.47170
C          5.67070       -2.02430       -4.29980
C          6.51320       -3.08660       -3.99760
C          7.33860       -3.02910       -2.87800
C          7.31870       -1.92490       -1.99760
C          8.25290       -2.02440       -0.81300
C          9.57570       -2.49120       -1.02700
C         10.48150       -2.63700        0.02920
C         10.08700       -2.36700        1.33550
C          8.79240       -1.93970        1.58760
C          7.88990       -1.74000        0.53220
O          6.68760       -1.27990        0.87070
H          2.07000       -1.73020       -1.94870
H          1.14010       -2.99350       -2.82610
H          2.34990       -3.46720       -1.62290
H          0.21800       -4.83470       -1.15520
H         -1.51780       -5.13690        0.53210
H         -2.26860       -3.22920        1.91210
H         -1.19600       -1.01730        1.69250
H         -1.54340        2.22260        0.41830
H         -0.06650        3.22070       -0.00330
H         -1.25880        3.71340        1.23340
H         -0.55000        3.54850        3.34270
H          0.63810        2.51750        5.19000
H          1.95120        0.45570        4.84380
H          2.08230       -0.58310        2.62530
H          3.00960        0.43200       -2.04490
H          2.93420        1.87250       -3.13460
H          2.64870        0.21240       -3.77570
H          0.78600        1.85160       -4.67720
H         -1.65430        2.07320       -4.54570
H         -2.86120        1.31190       -2.53000
H         -1.64380        0.38400       -0.63870
H          2.55790       -2.54660        0.43140
H          5.50750       -3.02460        0.31490
H          4.11360       -4.14420        0.57810
H          5.50280        1.63300        2.13320
H          7.05980        2.44210        2.46630
H          6.90760        0.64900        2.65250
H          8.74120        1.10230       -0.56110
H          8.89700        0.54680        1.18100
H          8.85740        2.26350        0.80260
H          4.96730       -0.09550       -3.71590
H          5.03500       -2.07360       -5.17370
H          6.53050       -3.96330       -4.63100
H          7.97290       -3.88330       -2.67820
H          9.91760       -2.71910       -2.02620
H         11.49360       -2.96430       -0.16350
H         10.78220       -2.48040        2.15710
H          8.48680       -1.72130        2.60290
