84

P          0.96810        0.06440       -0.06960
C         -0.01800       -1.37970       -0.61020
C         -0.57670       -1.50150       -1.89400
C         -1.04150       -2.74830       -2.35080
C         -0.94680       -3.88560       -1.53820
Cl        -1.46110       -5.45820       -2.13220
C         -0.39670       -3.77850       -0.26490
C          0.07390       -2.55100        0.18620
C          0.60490       -0.06410        1.69990
C          1.63840       -0.34960        2.56250
C          1.43970       -0.43620        3.94140
C          0.15870       -0.26390        4.46640
Cl        -0.09230       -0.35790        6.20030
C         -0.91750       -0.03020        3.60110
C         -0.69790        0.06780        2.21760
C          0.40740        1.62670       -0.78450
C         -0.19510        2.60450        0.02530
C         -0.68580        3.78650       -0.53510
C         -0.58340        4.00450       -1.91100
Cl        -1.21940        5.48190       -2.61240
C          0.02040        3.04050       -2.72510
C          0.51840        1.85710       -2.16450
Au         3.42810        0.06440       -0.06960
Br         3.25630        2.28320        1.06770
C          3.18310       -1.79700       -1.04540
C          4.15020       -2.52420       -1.55890
P          5.88810        0.06440       -0.06960
C          7.04670       -1.35180        0.20380
C          6.55560       -2.64490        0.66140
C          5.16660       -3.01330        1.08270
C          7.47110       -3.71450        0.77190
C          8.82330       -3.52750        0.53990
C          9.30060       -2.26250        0.19730
C          8.42470       -1.18370        0.02180
C          6.39790        0.31550       -1.86650
C          6.51420        1.63430       -2.45120
C          6.28400        2.94750       -1.74760
C          6.91670        1.78750       -3.79360
C          7.22540        0.69320       -4.58250
C          7.18430       -0.57600       -4.03410
C          6.80350       -0.76330       -2.70390
C          6.36360        1.26240        1.31670
C          5.71120        1.33560        2.60200
C          4.71070        0.36880        3.11480
C          5.97060        2.39420        3.49000
C          6.93390        3.33830        3.20400
C          7.68010        3.21830        2.03760
C          7.40150        2.19710        1.11090
H         -0.59470       -0.66230       -2.57340
H         -1.43520       -2.84890       -3.35460
H         -0.27980       -4.66310        0.35700
H          0.56650       -2.54620        1.14790
H          2.58600       -0.51280        2.11820
H          2.27880       -0.63820        4.59510
H         -1.91710        0.07900        4.00160
H         -1.53680        0.24970        1.55840
H         -0.29820        2.46050        1.09010
H         -1.15380        4.52740        0.10110
H          0.09490        3.20490       -3.79260
H          0.97090        1.11680       -2.81110
H          2.21040       -2.20250       -1.22040
H          5.12870       -2.18040       -1.46030
H          3.96300       -3.45710       -2.07700
H          4.46740       -2.17680        1.08560
H          5.17870       -3.42390        2.11780
H          4.76960       -3.85270        0.45860
H          7.12820       -4.70250        1.06780
H          9.50190       -4.36070        0.65090
H         10.36350       -2.12690        0.05450
H          8.82460       -0.22120       -0.25470
H          5.93010        2.85820       -0.71920
H          5.53200        3.55710       -2.28310
H          7.24710        3.51820       -1.75050
H          7.00030        2.77560       -4.23660
H          7.52580        0.83310       -5.61460
H          7.46130       -1.42680       -4.64290
H          6.86130       -1.78060       -2.37000
H          4.61670       -0.47150        2.42230
H          3.76360        0.91020        3.31540
H          5.02820       -0.03750        4.09450
H          5.40880        2.48840        4.41650
H          7.10810        4.14860        3.90420
H          8.46230        3.93780        1.84490
H          7.99130        2.16520        0.20860
