61

P          1.04920       -0.06960        0.05230
C          0.15290       -1.79650        0.29510
C         -1.39140       -1.80720        0.28910
C          0.63140       -2.75130       -0.82650
C          0.53320       -2.54360        1.60130
C          0.75590        0.97580        1.67040
C          1.41910        0.46400        2.97440
C          1.35710        2.39500        1.54840
C         -0.75310        1.15150        1.94420
C          0.25530        0.36890       -1.62970
C          0.16950        1.75420       -2.41800
C          1.53840        2.23080       -2.84340
C         -0.65530        1.52320       -3.71430
C         -0.53570        2.91440       -1.69270
Au         3.50920       -0.06960        0.05230
Br         3.75790       -1.66550        1.96410
C          3.71620        0.29080       -1.99180
C          4.31900        1.33760       -2.56400
N          5.60920       -0.06960        0.05230
C          6.29740       -1.22590        0.30740
C          7.69170       -1.25370        0.30220
F          8.35150       -2.42860        0.45700
C          8.39550       -0.06780        0.12600
C          7.69600        1.11720       -0.08670
C          6.29920        1.08850       -0.16390
H         -1.83620       -1.45550       -0.65230
H         -1.83730       -1.27390        1.13470
H         -1.75170       -2.85240        0.41500
H          0.31390       -2.42320       -1.83180
H          0.20450       -3.76990       -0.68780
H          1.73930       -2.86640       -0.80920
H          0.16590       -2.06260        2.51250
H          1.58470       -2.78820        1.65530
H          0.08450       -3.55900        1.64550
H          2.51920        0.47730        2.89310
H          1.07780       -0.49730        3.35200
H          1.17910        1.15220        3.81780
H          2.44430        2.37490        1.36250
H          1.17700        2.98530        2.48190
H          0.87930        3.00670        0.80880
H         -1.19840        0.22830        2.33860
H         -1.29330        1.49750        1.03580
H         -0.94030        1.89860        2.74840
H         -0.79710        0.14720       -1.45840
H          0.63700       -0.37240       -2.35060
H          1.98380        1.46650       -3.51600
H          2.13820        2.42290       -1.93080
H          1.49290        3.17620       -3.42460
H         -0.21360        0.72530       -4.34780
H         -0.68890        2.45170       -4.33120
H         -1.70410        1.24730       -3.47440
H          0.08800        3.34130       -0.92290
H         -1.52720        2.62620       -1.29490
H         -0.66250        3.78160       -2.38230
H          3.34580       -0.49800       -2.64030
H          4.69790        2.17130       -2.00600
H          4.39960        1.38200       -3.64510
H          5.77830       -2.16500        0.41260
H          9.47670       -0.06840        0.15910
H          8.23130        2.05290       -0.18180
H          5.77610        2.02140       -0.26990
