83

P          1.01280       -0.06620        0.07390
C         -0.05120       -0.67290       -1.43130
C         -1.49650       -0.64600       -1.51350
C         -2.42190        0.12490       -0.62070
C         -2.20580       -1.26310       -2.56650
C         -1.56240       -1.87820       -3.61900
C         -2.32480       -2.55880       -4.72500
C         -0.18860       -1.80760       -3.67810
C          0.58330       -1.20240       -2.66080
C          2.05080       -1.18140       -3.04560
C          0.71950       -1.43000        1.41440
C          0.21310       -2.78720        1.21620
C          0.08440       -3.49170       -0.09210
C         -0.17750       -3.60090        2.30370
C         -0.09940       -3.17950        3.62110
C         -0.58250       -4.05470        4.76100
C          0.46660       -1.94610        3.87950
C          0.91670       -1.08980        2.82910
C          1.59330        0.15950        3.35460
C          0.36960        1.66840        0.26160
C         -0.46200        2.06010        1.37590
C         -1.19920        1.11300        2.30400
C         -0.74720        3.40740        1.60490
C         -0.32870        4.38980        0.72080
C         -0.57430        5.83520        1.02430
C          0.29090        4.01340       -0.46720
C          0.63330        2.67560       -0.71620
C          1.23890        2.39740       -2.06000
Au         3.47280       -0.06620        0.07390
Br         3.47280       -2.55450       -0.64470
C          3.47280        1.99940        0.67030
C          3.65380        2.42380        1.91990
C          5.62280       -0.06620        0.07390
N          6.43890        1.05600        0.12800
C          6.18880        2.49140        0.00560
C          7.71590        0.62180        0.17610
Cl         9.17010        1.62160        0.22640
C          7.73070       -0.71990        0.14040
Cl         9.21390       -1.69120        0.18610
N          6.46430       -1.18050        0.06690
C          6.24660       -2.63140        0.09830
H         -1.95230        0.98720       -0.18000
H         -3.03130       -0.50530        0.04790
H         -3.12430        0.68700       -1.28600
H         -3.28880       -1.24850       -2.58750
H         -3.42900       -2.54300       -4.54330
H         -2.02900       -3.63960       -4.77890
H         -2.13040       -2.09650       -5.70790
H          0.29040       -2.23530       -4.55760
H          2.13110       -1.01670       -4.14630
H          2.51110       -2.17960       -2.98260
H          2.65220       -0.33620       -2.67120
H          0.49930       -2.95340       -0.92930
H         -0.97560       -3.77540       -0.26750
H          0.70180       -4.41450       -0.03030
H         -0.58260       -4.59080        2.12190
H         -0.96540       -5.02950        4.38960
H         -1.41280       -3.55860        5.31330
H          0.23900       -4.26040        5.48130
H          0.55930       -1.65470        4.92300
H          1.51020        0.26300        4.46550
H          1.23950        1.11070        2.94630
H          2.66210        0.03570        3.13790
H         -1.15330        0.06450        1.98580
H         -2.28670        1.33830        2.22640
H         -0.93020        1.23920        3.37010
H         -1.32490        3.68960        2.47840
H         -1.04450        5.96500        2.02330
H         -1.22350        6.29250        0.25280
H          0.40620        6.35860        1.04650
H          0.53620        4.77600       -1.19760
H          2.08810        3.07130       -2.28240
H          0.44780        2.54810       -2.83080
H          1.57240        1.37030       -2.15450
H          3.20230        2.73640       -0.07440
H          3.85680        1.74430        2.72930
H          3.56240        3.48320        2.14160
H          5.34810        2.70990       -0.66700
H          7.00090        2.94890       -0.60280
H          6.22840        2.99330        0.99380
H          7.16890       -3.20980        0.29110
H          5.94710       -2.99320       -0.90370
H          5.57920       -2.90220        0.94430
