133

P          1.04310       -0.05880        0.06850
C         -0.02840       -0.35760        1.74600
C         -1.32140       -1.03650        1.83100
C         -2.22940       -1.34620        0.72640
C         -1.84870       -1.56560        3.03710
C         -1.18460       -1.47920        4.23500
C         -1.69470       -2.15880        5.47890
C         -0.01830       -0.77440        4.26250
C          0.54650       -0.23370        3.08770
C          1.78650        0.43700        3.38870
C          0.22420        1.76920       -0.32170
C          0.97990        3.02790       -0.54650
C          2.45010        3.23490       -0.78350
C          0.34700        4.31050       -0.63690
C         -1.01150        4.47840       -0.62160
C         -1.71080        5.81740       -0.66040
C         -1.76860        3.36580       -0.62820
C         -1.24660        2.05440       -0.53250
C         -2.45370        1.16240       -0.73950
C          0.43460       -1.67990       -0.80290
C         -0.26140       -1.77120       -2.09170
C         -0.65760       -0.64990       -3.01160
C         -0.60960       -3.02770       -2.65200
C         -0.31570       -4.22170       -2.02050
C         -0.63370       -5.54950       -2.67320
C          0.29100       -4.17470       -0.77670
C          0.65190       -2.95290       -0.16140
C          1.27670       -3.07420        1.19380
Au         3.50310       -0.05880        0.06850
Br         3.50310        1.92940        1.72840
C          3.50310       -1.70920       -1.30950
C          4.31730       -2.79160       -1.17880
C          5.65310       -0.05880        0.06850
N          6.58950        0.68660        0.90310
C          6.84420        1.80630        2.08520
C          8.07970        1.67770        2.93970
C          9.11920        0.67970        2.74280
C          8.24030       -0.62920        3.06870
C          9.95980        1.31850        1.47850
C          8.42710        2.44500        4.07000
C          7.69920        3.46530        4.51600
C          6.63930        3.82590        3.80390
C          6.17080        3.15030        2.63770
C          4.96110        4.04690        2.25690
C          3.87040        3.96640        3.50160
C          4.88240        5.47060        1.73650
C          7.71870       -0.04080        0.50020
C          7.52140       -0.85040       -0.51210
N          6.33880       -0.78690       -1.03540
C          6.36130       -1.59080       -2.47070
C          5.23800       -1.74800       -3.52790
C          3.84960       -1.06590       -3.78950
C          3.00070        0.19480       -3.41160
C          2.72760       -2.26300       -3.88480
C          5.32810       -2.72000       -4.55430
C          6.36700       -3.51400       -4.77450
C          7.49940       -3.24080       -4.11900
C          7.61040       -2.26080       -3.07870
C          9.13040       -1.87200       -2.88790
C         10.18170       -2.61930       -3.74960
C          9.18340       -0.37380       -3.27080
H         -1.77630       -1.00860       -0.16410
H         -3.20490       -0.85160        0.95410
H         -2.40710       -2.42550        0.61110
H         -2.78620       -2.11060        3.03550
H         -2.61900       -2.73860        5.27440
H         -1.89860       -1.41540        6.27420
H         -0.93060       -2.88180        5.85000
H          0.48230       -0.68830        5.22640
H          2.13710        0.43920        4.44480
H          1.53790        1.50350        3.18650
H          2.54680       -0.11100        2.80680
H          3.07500        2.33540       -0.82950
H          2.82720        3.97410       -0.04660
H          2.57420        3.73650       -1.77650
H          0.92550        5.22410       -0.74200
H         -1.00730        6.67000       -0.60260
H         -2.40480        5.88330        0.21030
H         -2.32580        5.90870       -1.58310
H         -2.83890        3.56210       -0.72070
H         -3.21210        1.63660       -1.42230
H         -3.07830        1.09420        0.16450
H         -2.34370        0.36960       -1.47010
H         -0.35640        0.34180       -2.64730
H         -1.76130       -0.70420       -3.17920
H         -0.22320       -0.81260       -4.02320
H         -1.09820       -3.08320       -3.62400
H         -1.09980       -5.42730       -3.67640
H         -1.32580       -6.14340       -2.04120
H          0.30410       -6.13110       -2.81770
H          0.48600       -5.11880       -0.28150
H          1.45820       -4.12800        1.48120
H          0.57890       -2.72260        1.96350
H          2.22610       -2.51200        1.22140
H          2.57490       -2.00350       -1.61700
H          5.24010       -2.84260       -0.62360
H          4.05730       -3.74210       -1.63650
H          9.93050        0.59140        3.47790
H          7.19900       -0.71720        2.67030
H          7.93450       -0.62960        4.13770
H          8.72340       -1.57220        2.78250
H         10.37420        0.61450        0.71520
H         10.90570        1.78520        1.77230
H          9.35670        2.03560        0.83500
H          9.31550        2.24970        4.64990
H          7.97620        4.01910        5.40720
H          6.16320        4.70980        4.22350
H          4.93470        3.65640        1.22590
H          4.03040        4.61440        4.38690
H          3.87530        2.96070        4.00830
H          2.81660        4.13820        3.18380
H          4.75590        6.22190        2.53460
H          3.92330        5.52020        1.15270
H          5.70040        5.68350        1.02350
H          8.60570       -0.16300        0.74790
H          8.26630       -1.46410       -0.78940
H          4.35880       -0.58660       -2.96700
H          2.34980        0.38680       -4.27290
H          3.49070        1.14810       -3.04720
H          2.28620       -0.01800       -2.58690
H          2.38950       -2.54250       -4.88600
H          1.77300       -2.04050       -3.41020
H          3.02090       -3.24430       -3.42230
H          4.53820       -2.91450       -5.26240
H          6.31060       -4.25520       -5.56870
H          8.29870       -3.81740       -4.55390
H          9.61170       -2.08780       -1.92330
H         10.00720       -2.49270       -4.84100
H         10.17400       -3.70130       -3.48010
H         11.20400       -2.24880       -3.52900
H          8.69750       -0.21240       -4.26280
H         10.21560        0.02310       -3.32290
H          8.61870        0.24670       -2.54910
