45

P          1.05930       -0.07840        0.01830
C         -0.26270        1.13670       -0.29990
C          0.85600       -0.94620       -1.56940
C          0.32830       -0.75520        1.51010
C         -0.62610       -1.78170        1.44990
C         -1.31170       -2.16710        2.60730
C         -1.05300       -1.52800        3.82760
C         -0.09940       -0.50940        3.88990
C          0.58430       -0.11960        2.73370
Au         3.51930       -0.07840        0.01830
Br         3.51930       -2.53280        0.84560
C          3.51930        1.95890       -0.66840
C          4.38320        2.95090       -0.91940
P          5.97930       -0.07840        0.01830
O          6.91140        0.27900        1.43680
C          8.31160        0.25240        1.24570
C          8.66950       -0.16870       -0.17420
C         10.18940       -0.20430       -0.37950
C          7.97070       -1.57700       -0.38960
O          6.61170       -1.65660        0.05570
O          6.67640        1.21820       -0.80120
C          8.02350        0.89830       -1.11210
H         -1.26850        0.68270       -0.35420
H         -0.03290        1.66550       -1.25210
H         -0.23110        1.90520        0.50380
H         -0.22330       -1.11860       -1.77220
H          1.37460       -1.92340       -1.54100
H          1.27660       -0.32230       -2.38580
H         -0.87040       -2.25080        0.50510
H         -2.06610       -2.94230        2.55890
H         -1.60010       -1.80960        4.71610
H          0.09060       -0.00140        4.82760
H          1.28960        0.69980        2.78790
H          2.49220        2.26390       -0.83820
H          5.43580        2.96250       -0.79480
H          3.98040        3.89880       -1.26720
H          8.75000       -0.46510        1.97330
H          8.71380        1.26400        1.46940
H         10.66040       -0.92800        0.31710
H         10.62440        0.79900       -0.16960
H         10.43650       -0.48150       -1.42330
H          8.54890       -2.31300        0.21280
H          8.06030       -1.87260       -1.45730
H          8.58860        1.84860       -0.99200
H          8.10520        0.59040       -2.17400
