80

P          1.00070        0.09300        0.03680
C          0.15650        0.53280       -1.57310
C         -1.37350        0.65240       -1.64070
C          0.75300        1.86230       -2.06610
C          0.58640       -1.67110        0.43650
C          1.16330       -2.01030        1.81280
C         -0.92990       -1.92560        0.51190
C          0.41570        1.44940        1.10900
Au         3.46070        0.09300        0.03680
Br         3.46070       -1.73210       -1.80090
C          3.46070        1.60800        1.56230
C          3.68800        1.20480        2.81030
P          5.92070        0.09300        0.03680
N          6.71690       -1.50380       -0.30880
C          6.40400       -2.46940        0.79510
C          4.88750       -2.68530        0.99720
C          6.97760       -3.90110        0.58330
C          8.15710       -1.45390       -0.63890
C          8.70510       -0.09530       -0.42220
C         10.23980       -0.10240       -0.62690
C          7.99430        0.87050       -1.42200
N          6.46840        0.81690       -1.48660
C          6.00870        2.25620       -1.53160
C          6.63200        3.11110       -2.67130
C          4.49140        2.41000       -1.68670
N          7.04560        0.70140        1.38050
C          7.21400        2.14910        1.87840
C          6.00630        3.01880        2.22210
C          8.05560        2.18000        3.21410
C          8.43490        0.26760        1.05770
H          0.47370       -0.23770       -2.30930
H         -1.75910        1.40060       -0.91970
H         -1.90560       -0.29170       -1.51700
H         -1.65700        0.98430       -2.66240
H          0.44960        2.71390       -1.42410
H          0.41980        2.08800       -3.10090
H          1.85730        1.80460       -2.08120
H          1.02530       -2.35420       -0.31780
H          0.70740       -1.37010        2.59880
H          2.25380       -1.86820        1.82940
H          0.94900       -3.07370        2.06240
H         -1.43020       -1.18620        1.17330
H         -1.13820       -2.94340        0.91170
H         -1.37940       -1.94220       -0.48460
H         -0.69450        1.41970        1.13570
H          0.74650        2.44420        0.76290
H          0.76450        1.27750        2.14630
H          3.16550        2.62920        1.34380
H          3.96200        0.17490        3.00610
H          3.61340        1.90530        3.63590
H          6.80310       -2.07830        1.75930
H          4.45680       -3.22370        0.12880
H          4.35320       -1.74100        1.17040
H          4.69450       -3.32300        1.88250
H          6.61890       -4.32380       -0.37870
H          6.64480       -4.57410        1.40530
H          8.07960       -3.96600        0.61090
H          8.31330       -1.79420       -1.68730
H          8.75680       -2.12380        0.00660
H         10.51730       -0.43160       -1.64500
H         10.72550       -0.78060        0.11340
H         10.66240        0.91390       -0.45670
H          8.36950        0.66940       -2.45020
H          8.38680        1.86580       -1.11350
H          6.28520        2.77400       -0.59590
H          6.35470        2.71680       -3.66100
H          7.73860        3.19660       -2.62130
H          6.27160        4.16700       -2.58660
H          4.15570        2.00300       -2.66050
H          4.20770        3.48340       -1.61330
H          3.95710        1.91370       -0.88490
H          7.75570        2.73720        1.10730
H          5.55230        2.69370        3.16580
H          5.33130        3.16310        1.37170
H          6.35810        4.04770        2.46200
H          7.54580        1.58880        4.00370
H          8.18070        3.22000        3.59140
H          9.09010        1.79560        3.15210
H          8.73950       -0.54240        1.75720
H          9.18190        1.06440        1.23950
