49

P          0.94860        0.01270        0.08480
C          0.12900       -0.10800       -1.58980
C         -1.40140       -0.07400       -1.70940
C          0.70440        1.01600       -2.47180
C          0.58330       -1.53870        1.04440
C          1.20450       -1.40680        2.43700
C         -0.91900       -1.79590        1.22400
C          0.22720        1.58270        0.68360
Au         3.40860        0.01270        0.08480
Br         3.14850       -2.23930       -0.98840
C          3.38670        1.94480        0.84760
C          2.93050        2.99800        0.17390
C          5.55860        0.01270        0.08480
N          6.28290       -1.05910        0.06140
C          5.82200       -2.41050        0.32940
C          7.68550       -0.76570        0.13480
C          7.75530        0.72080       -0.13370
N          6.41670        1.15870        0.16360
C          6.05050        2.53380       -0.12760
H          0.48390       -1.06050       -2.03980
H         -1.83160        0.84980       -1.28100
H         -1.89870       -0.95270       -1.28980
H         -1.67020       -0.10780       -2.78940
H          0.35500        2.01510       -2.14150
H          0.39000        0.88750       -3.52900
H          1.81610        1.00190       -2.45030
H          1.00830       -2.43220        0.55680
H          0.75780       -0.54820        2.98490
H          2.30120       -1.26320        2.36340
H          1.01450       -2.33050        3.02730
H         -1.43810       -0.90490        1.63970
H         -1.08950       -2.65300        1.90950
H         -1.37910       -2.11510        0.28240
H         -0.87500        1.46240        0.73440
H          0.43090        2.44430        0.03000
H          0.58250        1.78910        1.71240
H          3.80210        2.09090        1.84000
H          2.52850        2.88030       -0.82380
H          2.95900        3.98310        0.63050
H          4.88560       -2.39030        0.91100
H          6.51830       -2.88740        1.05580
H          5.82350       -3.03340       -0.58530
H          8.31580       -1.34810       -0.58450
H          8.01950       -0.96940        1.17670
H          7.89430        0.85860       -1.23600
H          8.55440        1.23830        0.41660
H          6.90700        3.06880       -0.59540
H          5.80750        3.07140        0.80680
H          5.24070        2.56160       -0.88070
