52

P          1.01360        0.09460       -0.02930
C          0.18190        0.22820       -1.63830
C         -1.19650        0.09750       -1.88590
C         -1.67270        0.07650       -3.20870
C         -0.78340        0.16050       -4.28320
F         -1.24550        0.09930       -5.55810
C          0.58300        0.27300       -4.04690
C          1.05750        0.30740       -2.73670
C          0.49580       -1.57820        0.38240
C          0.79750       -2.66850       -0.45400
C          0.41620       -3.96180       -0.08510
C         -0.27300       -4.17790        1.11270
F         -0.62950       -5.43500        1.47410
C         -0.59060       -3.09790        1.94000
C         -0.21230       -1.79850        1.57270
C          0.38510        1.55970        0.84670
C         -1.00380        1.67570        1.05940
C         -1.53680        2.69110        1.84780
C         -0.69240        3.61140        2.45460
F         -1.21420        4.58170        3.24510
C          0.69100        3.50710        2.27580
C          1.23120        2.48210        1.48030
Au         3.47360        0.09460       -0.02930
Br         3.47360        2.46220       -1.07940
C          3.47360       -1.87070        0.84240
C          4.39700       -2.83870        0.77740
O          5.52360        0.09460       -0.02930
C          6.03510       -0.23480        1.25030
C          7.55970       -0.24480        1.19680
C          5.54040        0.82040        2.24230
H         -1.91760       -0.03740       -1.10720
H         -2.73190       -0.03730       -3.40080
H          1.27990        0.30630       -4.87700
H          2.12980        0.35280       -2.58570
H          1.34250       -2.51340       -1.37560
H          0.66170       -4.80030       -0.72470
H         -1.12110       -3.26430        2.86960
H         -0.45460       -0.97760        2.23470
H         -1.69490        0.95630        0.67070
H         -2.60980        2.74170        2.00280
H          1.34430        4.20740        2.77720
H          2.30220        2.39320        1.40580
H          2.59490       -2.16340        1.38490
H          5.32690       -2.73120        0.23360
H          4.20650       -3.78160        1.28690
H          5.75610       -1.19140        1.66280
H          7.94950        0.73980        0.86160
H          7.90370       -1.03100        0.49340
H          7.97400       -0.46970        2.20460
H          5.85930        1.83920        1.93230
H          5.92740        0.61520        3.26340
H          4.43010        0.79970        2.28570
