68

P          0.95850       -0.08960        0.01610
C         -0.02800       -1.56500        0.29900
C         -1.41030       -1.53770        0.50930
C         -2.08460       -2.70400        0.86610
C         -1.38080       -3.91700        1.02390
O         -1.99190       -5.06960        1.41770
C         -3.31250       -5.17000        1.78490
C         -0.00010       -3.94850        0.80150
C          0.67250       -2.77270        0.45000
C          0.34380        0.84030        1.43180
C          0.23320        0.24560        2.70180
C         -0.28090        0.97120        3.77680
C         -0.68030        2.31390        3.60370
O         -1.20870        3.05590        4.61020
C         -1.52230        2.59330        5.87140
C         -0.54270        2.90500        2.34410
C         -0.04430        2.17570        1.26210
C          0.41590        0.22380       -1.68950
C         -0.51780       -0.56710       -2.39150
C         -0.96370       -0.18740       -3.65250
C         -0.48400        0.98620       -4.25780
O         -0.85510        1.35310       -5.51050
C         -1.58120        0.55670       -6.37330
C          0.42300        1.78870       -3.55800
C          0.86370        1.41390       -2.28480
Au         3.41850       -0.08960        0.01610
Br         3.41850       -1.76880       -1.95580
C          3.41850        1.30440        1.65300
C          4.25490        2.22770        2.15200
N          5.51850       -0.08960        0.01610
C          6.31580        0.21190        1.12070
O          5.76880        0.26710        2.36280
C          6.38260        0.63270        3.55050
C          7.71650        0.30670        1.00340
C          8.33450        0.03480       -0.19970
C          7.56330       -0.36610       -1.27230
C          6.17380       -0.43680       -1.14430
H         -1.95620       -0.60580        0.42900
H         -3.14230       -2.64930        1.05070
H         -3.54070       -6.21630        2.06610
H         -3.96690       -4.87470        0.93620
H         -3.51030       -4.51510        2.66130
H          0.55590       -4.86160        0.92600
H          1.74760       -2.80910        0.32050
H          0.52580       -0.78610        2.85650
H         -0.37070        0.48090        4.73810
H         -1.97540        3.41810        6.45910
H         -0.60940        2.23920        6.39520
H         -2.26340        1.76800        5.79720
H         -0.83850        3.93570        2.19580
H          0.04080        2.65120        0.29390
H         -0.94590       -1.46980       -1.99400
H         -1.69100       -0.81780       -4.14520
H         -1.65770        1.05410       -7.35970
H         -2.60240        0.37500       -5.97570
H         -1.05430       -0.41370       -6.51160
H          0.78960        2.70680       -4.00080
H          1.55280        2.06240       -1.75680
H          2.48890        1.40230        2.14910
H          5.23070        2.45450        1.75100
H          3.91560        2.83490        2.99330
H          5.62390        0.61580        4.36200
H          6.77080        1.67300        3.47520
H          7.20220       -0.06540        3.81020
H          8.34300        0.55250        1.85080
H          9.41100        0.10350       -0.28750
H          8.03920       -0.60230       -2.21530
H          5.66160       -0.68650       -2.04410
