81

P          0.96560       -0.08840        0.03170
C          0.17220       -1.78970        0.09020
C         -1.35970       -1.95820        0.03500
C          0.76760       -2.61890       -1.06350
C          0.53080        0.78330        1.62920
C          0.97020        2.25390        1.57340
C         -0.98630        0.83070        1.89680
C          0.15440        0.55020       -1.47600
Au         3.42560       -0.08840        0.03170
Br         3.42560       -1.32060        2.30980
C          3.42560        0.93450       -1.85940
C          4.26290        1.87160       -2.30450
C          5.57560       -0.08840        0.03170
N          6.42110       -1.17950       -0.07940
C          6.19770       -2.65660       -0.14830
C          6.90670       -3.80700       -0.75720
C          8.32550       -3.86930       -1.31860
C          6.30320       -5.12410       -0.70560
C          5.12770       -5.36010        0.01780
C          4.40640       -6.68440        0.14600
C          4.72220       -4.34560        0.85540
C          5.35510       -3.12200        0.83370
C          5.82910       -2.55430        2.14590
C          7.79250       -0.71360       -0.18930
C          7.65740        0.72250       -0.52060
N          6.37290        1.14370       -0.07340
C          6.32090        2.40720        0.72270
C          7.25170        3.49220        0.44370
C          8.19140        3.61170       -0.74580
C          7.36960        4.57180        1.34130
C          6.57440        4.67160        2.46290
C          6.73100        5.80090        3.44030
C          5.61540        3.69840        2.69030
C          5.49510        2.57830        1.85830
C          4.53310        1.56220        2.29610
H          0.52830       -2.26770        1.02880
H         -1.79970       -1.54110       -0.88930
H         -1.89920       -1.57660        0.90370
H         -1.59350       -3.04700        0.05020
H          0.45270       -2.22580       -2.05150
H          0.43060       -3.67660       -1.00650
H          1.87770       -2.61920       -1.01620
H          1.02410        0.28670        2.48830
H          0.43230        2.80070        0.76990
H          2.04070        2.37490        1.39380
H          0.74100        2.75170        2.54340
H         -1.53880        1.22750        1.01420
H         -1.22300        1.48850        2.76090
H         -1.37180       -0.14400        2.20770
H         -0.94610        0.50220       -1.32120
H          0.40610       -0.01820       -2.38700
H          0.39970        1.62220       -1.60590
H          2.64120        0.63080       -2.53960
H          5.08400        2.25980       -1.73530
H          4.11660        2.26850       -3.30580
H          8.96650       -2.99620       -1.22810
H          8.38940       -4.26810       -2.34860
H          8.89280       -4.59950       -0.67960
H          6.79220       -5.98050       -1.18190
H          4.87460       -7.52080       -0.40890
H          3.36130       -6.54730       -0.21790
H          4.34030       -6.95970        1.22260
H          3.99970       -4.58640        1.63410
H          5.37400       -3.08570        3.00230
H          5.78930       -1.46440        2.16550
H          6.92400       -2.49780        2.25120
H          8.36920       -1.13780       -1.00530
H          8.25390       -0.88170        0.80590
H          7.67800        0.80900       -1.64250
H          8.54180        1.22650       -0.06070
H          7.96860        2.92980       -1.57710
H          9.24620        3.48960       -0.41050
H          8.08550        4.61740       -1.20090
H          8.10930        5.34710        1.15110
H          7.57280        6.47330        3.16590
H          6.96200        5.37950        4.44790
H          5.78850        6.37310        3.48810
H          4.99910        3.79200        3.57660
H          3.92010        1.86840        3.17240
H          5.11820        0.67390        2.58700
H          3.85240        1.36940        1.46440
