73

P          1.04280       -0.06850       -0.05900
C          0.28960       -0.40980       -1.89700
C          0.70610       -1.75900       -2.57320
C         -0.02000       -2.94160       -1.95000
C         -1.54640       -2.82240       -2.09050
C         -2.08910       -1.41220       -1.81100
C         -1.19770       -0.30430       -2.39310
C          0.45850       -1.53130        1.23150
C          0.94840       -1.53950        2.69800
C          0.31650       -0.38980        3.48710
C         -1.17970       -0.68510        3.70290
C         -1.89550       -1.01330        2.40030
C         -1.06300       -1.96680        1.49050
C          0.42850        1.79310        0.15910
C         -0.98800        2.16590        0.11100
C         -2.13260        1.26950       -0.01910
C         -1.46600        3.46060        0.27120
C         -0.63670        4.50160        0.54130
C         -1.27600        5.83150        0.86490
C          0.73710        4.25750        0.57710
C          1.28110        2.94520        0.39190
C          2.76380        2.88070        0.54130
Au         3.50280       -0.06850       -0.05900
Br         3.47560        0.27840        2.44070
C          3.50210       -0.29330       -2.12190
C          3.38910        0.70520       -2.91200
N          5.60280       -0.06850       -0.05900
C          6.42940        0.27800        1.01000
F          5.99910        0.71710        2.19900
C          7.82800        0.29220        0.89940
C          8.44350       -0.06450       -0.28230
C          7.65770       -0.42420       -1.35130
C          6.27090       -0.40870       -1.22780
H          0.77790        0.38860       -2.49670
H          1.77370       -1.94810       -2.56540
H          0.44010       -1.75090       -3.66290
H          0.27270       -2.98610       -0.91710
H          0.31840       -3.89590       -2.40330
H         -2.02880       -3.56490       -1.41100
H         -1.81700       -3.07050       -3.13030
H         -2.12390       -1.27420       -0.78780
H         -3.15880       -1.32830       -2.08550
H         -1.54950        0.72360       -2.33250
H         -1.27590       -0.43700       -3.49860
H          0.96310       -2.43300        0.85760
H          2.02100       -1.66970        2.76000
H          0.65830       -2.48900        3.22100
H          0.49260        0.56030        2.94010
H          0.78370       -0.32730        4.48990
H         -1.68040        0.17520        4.20620
H         -1.27320       -1.57040        4.36170
H         -2.09260       -0.05900        1.98140
H         -2.90350       -1.44010        2.61200
H         -1.61510       -2.38100        0.66350
H         -1.06260       -2.92640        2.05250
H         -1.64280        0.34100        0.07450
H         -2.75220        1.44720       -0.92020
H         -2.86450        1.41840        0.80010
H         -2.53980        3.65100        0.24210
H         -2.39210        5.78220        0.80580
H         -0.94230        6.63750        0.18780
H         -1.04720        6.08390        1.92130
H          1.38460        5.09860        0.79550
H          3.04630        3.33640        1.51850
H          3.30320        3.40830       -0.27000
H          3.09630        1.86380        0.52460
H          3.83060       -1.30930       -2.54100
H          3.22310        1.68300       -2.48800
H          3.48530        0.58790       -3.97960
H          8.43850        0.59990        1.73910
H          9.52160       -0.05500       -0.37350
H          8.11790       -0.71410       -2.28850
H          5.80270       -0.71490       -2.12850
