78

P          1.08170       -0.04650        0.03420
C         -0.01610       -1.45360       -0.31480
C         -1.05070       -1.90370        0.52230
C         -1.74830       -3.07930        0.19570
C         -1.40420       -3.82440       -0.93770
C         -0.37970       -3.38030       -1.77200
C          0.29190       -2.19730       -1.47150
C          0.81700        0.28500        1.78310
C          1.29000       -0.63080        2.73380
C          1.06190       -0.41380        4.09610
C          0.35700        0.71730        4.51630
C         -0.11550        1.63550        3.57360
C          0.11490        1.42340        2.20900
C          0.43950        1.09980       -1.22820
C          1.19090        1.68480       -2.28770
C          2.64580        1.42410       -2.54530
C          0.54120        2.53670       -3.20110
C         -0.82680        2.78610       -3.10350
C         -1.57030        2.18990       -2.09190
C         -0.94380        1.36120       -1.16390
Au         3.54170       -0.04650        0.03420
Br         3.54170        2.49810        0.51750
C          3.54170       -2.15870       -0.36700
C          4.28740       -2.98680        0.35550
P          6.00170       -0.04650        0.03420
C          7.07530        0.83430       -1.23410
C          7.35750        2.22130       -1.30060
C          8.03520        2.79650       -2.38070
C          8.45010        2.01790       -3.45070
C          8.17180        0.66140       -3.44990
C          7.48750        0.08860       -2.37790
C          6.43940        1.07670        1.49460
C          6.99220        0.39390        2.60840
C          7.44320        1.04840        3.75710
C          7.31210        2.42250        3.87230
C          6.72610        3.13650        2.83840
C          6.30460        2.48560        1.67220
C          6.98910       -1.63010       -0.10670
C          6.59630       -2.71140       -0.92810
C          7.20110       -3.96540       -0.78840
C          8.26210       -4.12380        0.10240
C          8.74200       -3.02230        0.78990
O          9.69410       -3.14120        1.52160
N          8.10400       -1.80710        0.66810
H         -1.31560       -1.36350        1.41760
H         -2.54730       -3.43240        0.83580
H         -1.92250       -4.74510       -1.16970
H         -0.09810       -3.96190       -2.64320
H          1.09650       -1.88590       -2.12920
H          1.82820       -1.51610        2.41890
H          1.42560       -1.12570        4.82600
H          0.17520        0.88030        5.57120
H         -0.66560        2.50820        3.90230
H         -0.26560        2.13900        1.49300
H          3.07390        0.68560       -1.86240
H          3.22010        2.37180       -2.47600
H          2.76760        1.00990       -3.56840
H          1.09540        2.99520       -4.01140
H         -1.31440        3.43060       -3.82360
H         -2.63660        2.36580       -2.02680
H         -1.55300        0.90740       -0.39180
H          2.71570       -2.67910       -0.81790
H          4.98900       -2.61150        1.08770
H          4.14300       -4.06140        0.28060
H          7.06990        2.92720       -0.58710
H          8.22060        3.86300       -2.39460
H          8.96420        2.46870       -4.28920
H          8.46650        0.05000       -4.29420
H          7.27470       -0.95350       -2.49970
H          7.08650       -0.67620        2.62150
H          7.89160        0.48150        4.56350
H          7.65160        2.93100        4.76580
H          6.60260        4.20820        2.93530
H          5.88880        3.15800        0.96190
H          5.76420       -2.62020       -1.60850
H          6.82850       -4.81380       -1.34170
H          8.71180       -5.10850        0.23460
H          8.51670       -1.01290        1.19730
