69

P          0.94750       -0.07530        0.03970
C         -0.00930        1.36520       -0.49660
C         -0.81150        1.43890       -1.64960
C         -1.20370        2.70650       -2.12490
C         -0.78590        3.87550       -1.48900
C         -0.03610        3.79030       -0.32370
C          0.30890        2.53710        0.18160
C          0.86480       -1.18960       -1.38180
C          1.49690       -0.80920       -2.57550
C          1.46810       -1.64790       -3.69370
C          0.80120       -2.87190       -3.63100
C          0.16610       -3.26190       -2.44820
C          0.20140       -2.42730       -1.32300
C          0.17220       -0.39840        1.64850
C          0.73190        0.06330        2.86730
O          1.94350        0.68430        2.87190
C          2.52940        1.26310        3.98610
C         -0.00620       -0.10430        4.06520
C         -1.26040       -0.70970        4.05490
C         -1.80800       -1.14560        2.85460
C         -1.10490       -0.98350        1.66660
Au         3.40750       -0.07530        0.03970
Br         3.40750       -2.47510        1.01380
C          3.40750        1.91680       -0.76900
C          3.01150        3.16520       -0.51850
C          5.55750       -0.07530        0.03970
N          6.36570       -1.10690        0.05660
C          6.06210       -2.51250       -0.08680
C          7.75390       -0.72010       -0.05110
C          7.71530        0.75290       -0.38120
N          6.34990        1.11560       -0.11200
C          6.05840        2.44520        0.31510
C          6.70470        3.53550       -0.30610
C          6.39040        4.84560        0.05590
C          5.45030        5.09180        1.05540
C          4.84330        4.02030        1.72110
C          5.15030        2.70190        1.35360
H         -1.08580        0.55730       -2.20640
H         -1.79790        2.78850       -3.03400
H         -1.01270        4.85270       -1.90640
H          0.33390        4.69010        0.15670
H          0.92620        2.47460        1.06680
H          2.01640        0.13720       -2.63890
H          1.96280       -1.34720       -4.60830
H          0.78110       -3.52260       -4.49830
H         -0.34630       -4.21430       -2.40500
H         -0.28940       -2.75610       -0.41980
H          3.52590        1.66340        3.73070
H          2.66670        0.50930        4.79030
H          1.90410        2.10370        4.35880
H          0.37020        0.24590        5.01670
H         -1.81470       -0.81990        4.97940
H         -2.79240       -1.60290        2.84840
H         -1.57900       -1.29940        0.74280
H          4.00260        1.87130       -1.67680
H          2.55600        3.49690        0.38790
H          3.27090        3.94060       -1.23950
H          5.23420       -2.66350       -0.81310
H          5.99600       -3.01130        0.89970
H          6.89500       -3.03710       -0.61060
H          8.30390       -1.25450       -0.86000
H          8.23230       -0.92490        0.93100
H          7.90430        0.92560       -1.46380
H          8.45530        1.29630        0.25000
H          7.42380        3.36850       -1.09690
H          6.86920        5.67380       -0.45470
H          5.18790        6.10800        1.31230
H          4.10790        4.21190        2.49240
H          4.66160        1.87950        1.84650
