59

P          0.90520       -0.01670       -0.02710
C          0.38390       -1.81920       -0.02200
C         -0.43540       -2.35410       -1.04590
C         -0.86490       -3.69350       -1.01750
C         -0.48760       -4.53880        0.02290
C          0.31080       -4.04860        1.03770
C          0.72620       -2.72180        1.01360
C          0.41030        0.85340        1.50440
C          0.28250        0.17570        2.73410
C         -0.16000        0.83150        3.88260
C         -0.50020        2.17860        3.82730
C         -0.38900        2.87170        2.62090
C          0.06450        2.21750        1.46800
C         -0.15340        0.72830       -1.34690
C         -1.65610        0.75600       -1.36120
C         -2.47720        0.24310       -0.34550
C         -3.87040        0.32210       -0.48070
C         -4.44190        0.90420       -1.61990
C         -3.62760        1.41100       -2.62730
C         -2.24470        1.33790       -2.49820
Au         3.36520       -0.01670       -0.02710
Br         3.36520       -1.28300        2.23230
C          3.36520        1.03440       -1.90260
C          4.34100        1.34180       -2.75980
C          5.51520       -0.01670       -0.02710
N          6.34040        1.02060       -0.33450
C          6.02050        2.43240       -0.53850
C          7.60050        0.54660       -0.22040
Cl         9.06990        1.48380       -0.45800
C          7.54440       -0.77390        0.13650
Cl         8.92850       -1.84300        0.33430
N          6.24920       -1.12530        0.27860
C          5.77570       -2.50140        0.45350
H         -0.76970       -1.75950       -1.87630
H         -1.49930       -4.08010       -1.80150
H         -0.81580       -5.56970        0.05500
H          0.60590       -4.68950        1.86220
H          1.28870       -2.47100        1.85360
H          0.50340       -0.85860        2.84460
H         -0.24910        0.28550        4.81450
H         -0.85570        2.67990        4.71810
H         -0.66440        3.91640        2.57900
H          0.12500        2.78440        0.55210
H          0.17040        0.22960       -2.28530
H          0.17500        1.78360       -1.44080
H         -2.05330       -0.20970        0.53890
H         -4.51120       -0.06950        0.29950
H         -5.51800        0.96230       -1.72420
H         -4.06060        1.86090       -3.51390
H         -1.62230        1.73530       -3.29410
H          2.37660        1.33770       -2.21720
H          5.37330        1.07480       -2.62370
H          4.07760        1.88800       -3.66390
H          4.93100        2.61380       -0.46320
H          6.42780        2.79800       -1.50330
H          6.49620        3.02540        0.27690
H          6.61210       -3.22550        0.38900
H          5.07790       -2.75490       -0.37720
H          5.31560       -2.68160        1.42710
