46

P          1.08380        0.01040        0.05360
O          0.50060        1.61070        0.24820
C          0.73010        2.05050        1.57560
C          0.50150        3.55840        1.65260
O          0.82950       -1.09620       -1.25100
C         -0.49120       -0.89210       -1.77270
C         -0.74690       -1.67500       -3.04640
C         -0.17870       -0.92800        0.99930
C         -1.43940       -0.39990        1.34120
C         -2.35580       -1.17830        2.05040
C         -2.03580       -2.48140        2.44140
C         -0.78700       -3.01010        2.10600
C          0.12650       -2.23980        1.39740
Au         3.54380        0.01040        0.05360
Br         3.54380       -2.57380       -0.12050
C          3.54380        2.15550        0.19810
C          2.80400        2.87030       -0.64960
N          5.64380        0.01040        0.05360
C          6.39190       -1.04770       -0.44570
F          5.86240       -2.06730       -1.14000
C          7.78850       -1.05880       -0.41420
C          8.47610       -0.01060        0.16030
C          7.76010        1.05880        0.66000
C          6.36380        1.06650        0.57210
H          1.76330        1.84330        1.92130
H          0.03130        1.57170        2.28880
H          1.16980        4.10740        0.96060
H          0.70660        3.92600        2.67930
H         -0.54590        3.79800        1.37950
H         -0.70430        0.18230       -1.96670
H         -1.26580       -1.30830       -1.09520
H         -0.10530       -1.30590       -3.86880
H         -1.81550       -1.54150       -3.33450
H         -0.57540       -2.75810       -2.87000
H         -1.72220        0.60360        1.05150
H         -3.33020       -0.77830        2.31120
H         -2.74210       -3.08530        2.98210
H         -0.52330       -4.02090        2.40950
H          1.08910       -2.67250        1.15140
H          4.19380        2.76320        0.79530
H          2.17820        2.38780       -1.38960
H          2.86450        3.95540       -0.64140
H          8.33470       -1.88540       -0.85240
H          9.55720       -0.02550        0.20710
H          8.28390        1.88240        1.12850
H          5.92470        1.90410        1.03720
