74

P          1.02090        0.07790       -0.05910
C          0.50520       -1.52560       -0.73330
C         -0.67410       -2.25060       -0.45180
C         -0.85580       -3.53050       -1.00950
C          0.11420       -4.08870       -1.85490
C          1.27110       -3.37980       -2.14200
C          1.46630       -2.11500       -1.58270
C          0.44370       -0.21570        1.66900
C          0.43710       -1.42950        2.38650
C         -0.11560       -1.48160        3.68570
C         -0.65260       -0.33130        4.28160
C         -0.66130        0.86240        3.58510
C         -0.12960        0.90860        2.30170
C          0.15410        1.43860       -0.94630
C          0.28800        2.81530       -0.52990
O          1.11940        3.17690        0.50160
C          1.18570        4.44040        1.08750
C         -0.46150        3.81720       -1.19230
C         -1.31630        3.48970       -2.23270
C         -1.44580        2.16520       -2.63300
C         -0.72140        1.15020       -1.99520
Au         3.48090        0.07790       -0.05910
Br         3.52890       -1.71400        1.64870
C          3.85330        1.62740       -1.46410
C          3.04150        2.38510       -2.19000
C          5.63090        0.07790       -0.05910
N          6.36150        0.40700        0.95720
C          5.85880        1.04650        2.16970
C          6.45630        0.38300        3.40570
C          6.22990        2.55560        2.17730
C          7.76920        0.37030        0.60230
C          7.77720       -0.45600       -0.66450
N          6.45210       -0.22480       -1.18370
C          6.04420       -0.55520       -2.54080
C          6.73260        0.43350       -3.48270
C          6.42170       -1.99820       -2.94130
H         -1.42350       -1.85070        0.21380
H         -1.73850       -4.11140       -0.78310
H         -0.02250       -5.07560       -2.28290
H          2.02980       -3.79810       -2.79540
H          2.38630       -1.58830       -1.81230
H          0.81930       -2.34330        1.95300
H         -0.14390       -2.40780        4.23800
H         -1.08380       -0.36980        5.27570
H         -1.08010        1.75660        4.02550
H         -0.19940        1.85710        1.81630
H          1.91730        4.44160        1.92120
H          0.19320        4.72610        1.51000
H          1.50130        5.21520        0.35370
H         -0.39520        4.86550       -0.91250
H         -1.88270        4.27220       -2.72550
H         -2.12180        1.92380       -3.44070
H         -0.86250        0.13530       -2.32340
H          4.89590        1.90320       -1.57090
H          1.99360        2.27690       -2.21910
H          3.46710        3.18810       -2.78750
H          4.75090        0.98620        2.20380
H          7.56130        0.50760        3.42030
H          6.21180       -0.69680        3.40030
H          6.05130        0.85360        4.32580
H          7.33100        2.71480        2.15810
H          5.84230        3.05040        3.09470
H          5.79210        3.08110        1.30090
H          8.43310       -0.07170        1.37190
H          8.09420        1.40790        0.35810
H          7.82300       -1.53070       -0.36150
H          8.62140       -0.23370       -1.34620
H          4.94480       -0.45320       -2.64010
H          7.83750        0.32670       -3.42370
H          6.47560        1.47020       -3.18570
H          6.41760        0.26740       -4.53100
H          7.51990       -2.16480       -2.88600
H          6.11060       -2.18920       -3.99300
H          5.91500       -2.74570       -2.29600
