54

P          1.02220       -0.06790        0.07000
C          0.51090       -1.61110       -0.85020
C         -0.50590       -1.65160       -1.84020
C         -0.77770       -2.80480       -2.57730
C         -0.08960       -3.97810       -2.30890
C          0.82890       -4.00790       -1.26240
C          1.10680       -2.84350       -0.52980
C          0.54970       -0.07550        1.83250
C         -0.04240       -1.23700        2.34520
C         -0.45740       -1.31290        3.67970
C         -0.28880       -0.21230        4.52080
C          0.29360        0.95520        4.02900
C          0.71360        1.02850        2.69640
C         -0.19900        1.19400       -0.70380
C         -0.13950        2.64710       -0.12490
C          1.15370        3.41230       -0.49980
C          1.37290        3.48140       -2.01280
C          1.33410        2.08400       -2.60880
C          0.00550        1.41930       -2.26130
Au         3.48220       -0.06790        0.07000
Br         3.66820        1.86650        1.62220
C          3.63970       -1.73180       -1.15850
C          4.17960       -2.85080       -0.65890
C          5.63220       -0.06790        0.07000
N          6.38810        0.82850        0.73630
C          7.65300        0.46980        0.45840
C          7.62560       -0.63330       -0.36090
O          6.37080       -0.93640       -0.58630
H         -1.13940       -0.82900       -2.08310
H         -1.52750       -2.78080       -3.36040
H         -0.29260       -4.86780       -2.89440
H          1.33470       -4.93440       -1.02610
H          1.81520       -2.90230        0.28170
H         -0.19940       -2.10930        1.72360
H         -0.91250       -2.21620        4.05860
H         -0.61250       -0.26470        5.55230
H          0.41780        1.81100        4.68100
H          1.14370        1.95120        2.36020
H         -1.22140        0.80930       -0.50480
H         -0.30840        2.66740        0.96150
H         -0.98670        3.22920       -0.55240
H          2.01530        2.90210       -0.06940
H          1.12180        4.45050       -0.10300
H          2.35180        3.95540       -2.24740
H          0.57370        4.09630       -2.48260
H          2.17120        1.45390       -2.23840
H          1.42840        2.16980       -3.71520
H         -0.00200        0.54330       -2.91430
H         -0.82090        2.06910       -2.63760
H          3.26510       -1.70990       -2.17300
H          4.53030       -2.86920        0.36870
H          4.25660       -3.75120       -1.25860
H          8.53290        0.97850        0.82850
H          8.47690       -1.16840       -0.75970
