67

P          1.04590        0.05070       -0.07290
C          0.04050        1.53540       -0.48720
C         -0.53650        2.36850        0.49440
C         -1.14420        3.58360        0.11770
C         -1.18910        3.97750       -1.22540
C         -0.61350        3.17470       -2.19830
C          0.00570        1.98240       -1.83550
C          0.80260       -0.80490       -1.65680
C          1.87740       -1.22430       -2.44350
C          1.65000       -1.87160       -3.66180
C          0.33810       -2.09310       -4.10880
C         -0.73900       -1.66850       -3.33240
C         -0.51870       -1.03370       -2.11740
C          0.45030       -0.72620        1.47700
C         -0.24030       -1.98120        1.58680
C         -0.49100       -2.96290        0.47840
C         -0.74950       -2.37350        2.83920
C         -0.56600       -1.58830        3.97150
C          0.13660       -0.39530        3.87710
C          0.63550        0.02950        2.64820
Au         3.50590        0.05070       -0.07290
Br         3.50590       -2.48210        0.46820
C          3.50590        2.15330       -0.52210
C          4.10850        3.21920       -0.00820
C          5.65590        0.05070       -0.07290
N          6.41380       -0.87410        0.51350
C          6.03480       -1.90370        1.47370
C          7.00700       -2.17780        2.62640
C          7.82770       -0.64260        0.35330
C          7.92490        0.44790       -0.64210
N          6.59790        1.01320       -0.64880
C          6.47210        2.22970       -1.42280
C          7.10120        3.38270       -0.60500
H         -0.49200        2.12730        1.53360
H         -1.56580        4.23360        0.87080
H         -1.64830        4.91470       -1.50750
H         -0.62300        3.48020       -3.23790
H          0.48180        1.43660       -2.63700
H          2.89180       -1.05400       -2.11740
H          2.48110       -2.19710       -4.26670
H          0.16700       -2.58750       -5.05810
H         -1.75430       -1.83530       -3.68680
H         -1.37280       -0.71020       -1.53040
H          0.05160       -2.76050       -0.43980
H         -1.58120       -3.03870        0.27260
H         -0.12020       -3.96210        0.78800
H         -1.29310       -3.30620        2.94050
H         -0.96820       -1.91260        4.92240
H          0.28250        0.21410        4.75900
H          1.16260        0.97590        2.60810
H          2.71210        2.39410       -1.21980
H          4.79920        3.15790        0.80270
H          3.83370        4.19600       -0.41640
H          5.98480       -2.88100        0.94220
H          5.15840       -1.54530        2.05060
H          7.99100       -2.53290        2.25960
H          6.57380       -2.98930        3.25470
H          7.12990       -1.27570        3.26010
H          8.37780       -1.55350       -0.00750
H          8.24620       -0.29750        1.31440
H          8.11040        0.04160       -1.66500
H          8.73720        1.14150       -0.35470
H          5.46620        2.39280       -1.78790
H          7.02720        2.14990       -2.38180
H          6.81590        3.33610        0.46500
H          6.82550        4.37130       -1.01870
H          8.20530        3.29880       -0.57850
