49

P          1.07500       -0.05470       -0.03710
O          0.65160       -1.64940       -0.52700
C         -0.71320       -1.94360       -0.28590
C         -1.00310       -3.35490       -0.76490
O          0.96220        0.67930        1.49530
C          1.46730       -0.26040        2.42470
C          1.04600        0.11490        3.83770
C         -0.31240        0.88830       -0.73560
C         -1.15790        1.76990       -0.04090
C         -2.20100        2.41310       -0.72650
C         -2.40900        2.17770       -2.09200
C         -1.56240        1.31620       -2.78850
C         -0.51470        0.69480       -2.11940
Au         3.53500       -0.05470       -0.03710
Br         3.53500        2.42150        0.72230
C          3.53500       -2.11020       -0.66750
C          4.38050       -3.09800       -0.34120
N          5.63500       -0.05470       -0.03710
C          6.36300       -0.99450       -0.72330
N          7.71600       -1.04110       -0.65890
C          8.42170       -0.16180        0.08110
O          9.76910       -0.26620        0.19050
C         10.50580       -1.26800       -0.40480
C          7.74220        0.84910        0.74480
C          6.34680        0.89680        0.64980
H         -1.39540       -1.31960       -0.88720
H         -0.96070       -1.85540        0.79660
H         -0.75670       -3.44290       -1.84610
H         -2.08350       -3.58050       -0.63470
H         -0.40110       -4.08940       -0.19240
H          2.57790       -0.26780        2.37880
H          1.07150       -1.29130        2.25450
H          1.39740        1.13700        4.08830
H          1.49330       -0.60400        4.55860
H         -0.05950        0.06850        3.93590
H         -1.02900        1.96580        1.01420
H         -2.85750        3.09320       -0.19740
H         -3.22610        2.66400       -2.61130
H         -1.71850        1.13170       -3.84110
H          0.12700        0.03160       -2.67870
H          2.68160       -2.44190       -1.23790
H          5.22990       -2.95430        0.31290
H          4.19920       -4.10130       -0.71660
H          5.90830       -1.67870       -1.40330
H         11.57560       -1.15140       -0.13030
H         10.40970       -1.20950       -1.50950
H         10.15940       -2.26410       -0.05420
H          8.27970        1.56990        1.34910
H          5.87870        1.66170        1.23050
