53

C          0.90100       -0.64300       -0.00200
N         -0.38760       -1.09100       -0.04000
C         -0.91940       -2.47220       -0.16210
C          0.20570       -3.51510       -0.31010
C         -1.75460       -2.83500        1.08190
C         -1.82670       -2.55720       -1.41180
C         -1.14450        0.02690        0.01150
C         -0.32400        1.12630        0.06950
N          0.96280        0.71540        0.06620
C          2.14800        1.61210        0.16460
C          2.06510        2.41030        1.48270
C          3.47500        0.82980        0.15640
C          2.17520        2.59560       -1.02130
Au         2.65840       -1.88140       -0.01350
Br         2.66030       -1.85470       -2.60340
C          2.65690       -1.90370        2.13640
C          1.71910       -1.29950        2.87550
N          4.37500       -3.09110       -0.02470
C          4.90750       -3.56460        1.26740
C          4.04100       -4.29920       -0.81890
C          5.43810       -2.41140       -0.79740
H          0.88260       -3.49460        0.56750
H          0.79090       -3.32490       -1.22610
H         -0.21740       -4.54010       -0.39630
H         -1.11380       -2.87430        1.98800
H         -2.22990       -3.83350        0.95170
H         -2.56510       -2.09580        1.25190
H         -1.25760       -2.29210       -2.32810
H         -2.69010       -1.86280       -1.32780
H         -2.23890       -3.58210       -1.53790
H         -2.22370        0.04880       -0.00570
H         -0.64770        2.15710        0.11950
H          2.04690        1.72120        2.35390
H          1.14490        3.03060        1.51730
H          2.93530        3.09300        1.59150
H          3.54310        0.15650        1.02380
H          4.34000        1.52430        0.23240
H          3.58710        0.24730       -0.77930
H          1.28150        3.25470       -1.02110
H          2.21480        2.04430       -1.98570
H          3.07260        3.25170       -0.95770
H          3.39360       -2.38440        2.74710
H          0.88890       -0.75520        2.45780
H          1.77790       -1.34280        3.95920
H          4.14950       -4.16580        1.81590
H          5.28880       -2.71010        1.86650
H          5.78730       -4.23200        1.12540
H          3.17800       -4.82410       -0.35580
H          4.89550       -5.01420       -0.86480
H          3.77120       -4.08680       -1.86550
H          5.69280       -1.45120       -0.30010
H          5.15240       -2.17630       -1.83610
H          6.36630       -3.02580       -0.84550
