62

C          0.90100       -0.64300       -0.00200
N         -0.39730       -1.06890       -0.14760
C         -0.99950       -2.39360       -0.43250
C         -0.56570       -3.47000        0.58210
C         -1.29370       -3.36300        1.94260
C         -2.80610       -3.54400        1.75030
C         -3.33060       -2.43200        0.84270
C         -2.58950       -2.44770       -0.52310
C         -1.16950        0.04410        0.07910
C         -0.38090        1.11160        0.33010
N          0.90350        0.72150        0.28400
C          2.04500        1.67910        0.33610
C          3.05480        1.24950       -0.72950
C          2.42600        1.41060       -2.13450
C          2.30070        2.89370       -2.45490
C          1.35730        3.55780       -1.44680
C          1.72250        3.21200        0.03120
Au         2.65840       -1.88140       -0.01350
Br         2.45380       -1.90100       -2.49820
C          2.63370       -1.75220        2.10660
C          1.69360       -1.18640        2.86970
N          4.37500       -3.09110       -0.02470
C          4.77120       -3.89950        1.02800
C          3.77890       -4.44020        2.03500
C          5.98690       -4.59550        0.99640
C          6.81930       -4.47640       -0.10040
C          6.39130       -3.73820       -1.19350
C          5.14550       -3.10050       -1.16040
H         -0.61650       -2.68420       -1.43440
H          0.53250       -3.43730        0.72560
H         -0.81990       -4.47590        0.16930
H         -1.09590       -2.37940        2.42030
H         -0.93060       -4.16300        2.62110
H         -3.33110       -3.51510        2.73200
H         -3.01400       -4.53890        1.29430
H         -3.21460       -1.46620        1.37540
H         -4.42530       -2.58640        0.68550
H         -2.99090       -1.65130       -1.17890
H         -2.87100       -3.41390       -0.99590
H         -2.25210        0.08520        0.07680
H         -0.73770        2.10810        0.53060
H          2.49270        1.61670        1.35010
H          3.33820        0.20250       -0.53500
H          3.98320        1.85370       -0.65640
H          1.42140        0.93090       -2.19830
H          3.07800        0.93450       -2.88870
H          1.91230        3.03620       -3.49030
H          3.31900        3.33640       -2.41380
H          0.32330        3.23060       -1.67110
H          1.40140        4.66150       -1.61590
H          0.94940        3.64850        0.70070
H          2.65600        3.77810        0.23730
H          3.45240       -2.16350        2.66090
H          0.79980       -0.73080        2.48040
H          1.81320       -1.20010        3.95020
H          2.73530       -4.16110        1.78590
H          4.05540       -4.24850        3.08810
H          3.73040       -5.54850        1.90550
H          6.25740       -5.27930        1.79400
H          7.76580       -4.99950       -0.12380
H          7.03130       -3.64750       -2.06160
H          4.90650       -2.49170       -2.00870
