36

C          0.90100       -0.64300       -0.00200
N         -0.35670       -1.13580        0.00310
C         -0.79370       -2.53850       -0.00030
C         -0.27540       -3.26440       -1.23500
C         -0.34490       -3.24920        1.28220
C         -1.17620       -0.07040        0.04580
C         -0.41210        1.07200        0.11580
N          0.89030        0.71600        0.11910
C          2.02860        1.57650        0.43380
C          2.17550        2.74610       -0.53920
C          1.84390        2.12340        1.86590
Au         2.65840       -1.88140       -0.01350
Br         4.50150       -0.50420       -0.96390
C          3.10270       -2.04970        2.03120
C          2.25420       -1.71160        2.99480
C          4.41590       -3.11990       -0.02500
O          5.41160       -3.82150       -0.03150
H         -1.91200       -2.56880       -0.01560
H          0.83600       -3.27900       -1.23420
H         -0.62990       -2.74580       -2.15050
H         -0.64860       -4.30880       -1.24800
H          0.75940       -3.29740        1.33030
H         -0.73940       -4.28450        1.31090
H         -0.72760       -2.70560        2.17430
H         -2.26100       -0.10820        0.05910
H         -0.77330        2.08550        0.22310
H          2.95310        0.99290        0.45820
H          1.27370        3.39180       -0.52630
H          2.34940        2.37170       -1.57210
H          3.05030        3.36720       -0.24260
H          0.94110        2.76880        1.93510
H          2.72670        2.71420        2.17250
H          1.72000        1.27810        2.57840
H          4.06250       -2.45590        2.34590
H          1.28190       -1.30500        2.76210
H          2.54500       -1.85560        4.03250
