50

P         -1.35000        0.00100        0.79800
N         -1.07040       -1.07730       -0.63110
C         -2.20570       -0.99190       -1.57170
C          0.17900       -1.23510       -1.41410
C          1.45490       -1.08530       -0.63620
N          1.56040        0.20620        0.07920
C          1.23760        1.55910       -0.42450
C         -0.18480        1.78260       -1.01860
N         -1.36340        1.52460       -0.14170
C         -1.70750        2.68840        0.66360
N         -0.13350       -0.76760        1.86850
C         -0.65010       -1.79140        2.78090
C          0.91480        0.13260        2.39750
C          2.09390        0.10100        1.43200
Au        -3.32260        0.00260        2.26790
Br        -2.25680        1.88200        3.69620
C         -4.20730       -1.55750        1.08220
C         -3.66470       -2.76280        0.92860
O         -4.96640        0.00390        3.49280
C         -5.93840       -0.88690        3.48340
N         -6.90040       -0.58120        4.37640
C         -6.47900        0.56230        4.94480
C         -5.26910        0.91340        4.39310
H         -3.15750       -0.73700       -1.07330
H         -2.34170       -1.96400       -2.09100
H         -2.04260       -0.20370       -2.33670
H          0.23010       -0.60640       -2.31780
H          0.17680       -2.26410       -1.83760
H          2.33140       -1.23310       -1.30000
H          1.44910       -1.93510        0.08680
H          1.98940        1.83420       -1.19280
H          1.34450        2.29330        0.40350
H         -0.32630        1.27860       -1.97240
H         -0.21100        2.83910       -1.36270
H         -1.83020        3.58310        0.01570
H         -0.91730        2.89710        1.41400
H         -2.70270        2.53270        1.12260
H         -1.68200       -1.56170        3.10700
H         -0.01350       -1.90440        3.68420
H         -0.61730       -2.76900        2.25770
H          0.52770        1.16650        2.48490
H          1.30960       -0.17770        3.38890
H          2.64970       -0.85950        1.55530
H          2.84210        0.89810        1.64910
H         -5.13960       -1.33200        0.57410
H         -2.73430       -3.02210        1.40700
H         -4.16140       -3.49970        0.30480
H         -5.98580       -1.76430        2.85940
H         -7.02600        1.11140        5.69960
H         -4.71510        1.80100        4.64250
