63

C          0.90100       -0.64300       -0.00200
N         -0.41430       -1.06580       -0.07930
C         -0.90610       -2.46520       -0.01840
C         -0.86940       -2.98150        1.43430
C         -2.11590       -2.56550        2.23930
C         -3.36270       -3.17210        1.58710
C         -3.54420       -2.56940        0.19010
C         -2.28720       -2.80740       -0.68420
C         -1.15560        0.05280        0.03070
C         -0.32570        1.13930        0.11880
N          0.96370        0.73010        0.10290
C          2.19710        1.57240        0.05180
C          2.39670        2.20590       -1.34610
C          1.43220        3.36840       -1.61350
C          1.66120        4.48260       -0.58150
C          1.46780        3.96660        0.85290
C          2.34400        2.72580        1.12000
Au         2.65840       -1.88140       -0.01350
Br         1.81920       -3.05240       -2.16590
C          3.35510       -0.90940        1.77320
C          2.66390       -0.09480        2.56930
N          4.37500       -3.09110       -0.02470
C          4.28790       -4.44930       -0.17230
O          3.05730       -5.02510       -0.20710
C          2.79260       -6.33860        0.14510
C          5.46540       -5.22630       -0.09260
C          6.69800       -4.60230        0.08040
C          6.76050       -3.21820        0.22450
C          5.57490       -2.48680        0.21120
H         -0.17630       -3.05250       -0.57580
H          0.05700       -2.62780        1.93280
H         -0.84550       -4.09160        1.41750
H         -2.21940       -1.45900        2.29520
H         -2.02440       -2.95750        3.27380
H         -4.26480       -2.96960        2.20540
H         -3.24710       -4.28010        1.52540
H         -3.77210       -1.49280        0.29530
H         -4.42960       -3.04880       -0.29160
H         -2.40330       -2.33670       -1.68360
H         -2.27940       -3.90770       -0.84720
H         -2.23410        0.09140        0.06390
H         -0.66840        2.15370        0.19370
H          3.06630        0.91010        0.14780
H          2.30050        1.41790       -2.12220
H          3.43390        2.61060       -1.41130
H          0.38380        3.01900       -1.58990
H          1.62300        3.77190       -2.62990
H          0.96650        5.32890       -0.77370
H          2.70040        4.86340       -0.69640
H          0.40640        3.74290        1.03730
H          1.74000        4.77800        1.56560
H          2.18620        2.38570        2.15980
H          3.39730        3.08600        1.06440
H          4.35110       -1.15570        2.11680
H          1.63370        0.16300        2.38780
H          3.13240        0.30240        3.46500
H          1.69720       -6.51180        0.13900
H          3.15100       -6.53680        1.18280
H          3.27650       -7.04390       -0.56140
H          5.43720       -6.30500       -0.13870
H          7.60620       -5.18920        0.12090
H          7.71070       -2.72230        0.34360
H          5.62860       -1.41160        0.30740
