75

C          0.90100       -0.64300       -0.00200
N          0.89170        0.71710        0.25070
C          1.93650        1.74270        0.40670
C          2.82610        1.52110        1.60960
C          2.69040        1.88320       -0.91250
C         -0.38280        1.12490        0.13680
C         -1.14870        0.07470       -0.25240
N         -0.37470       -1.01290       -0.40600
C         -1.05330       -2.22950       -0.89590
C         -1.73230       -1.97330       -2.26920
C         -0.16710       -3.46510       -0.99550
Au         2.65840       -1.88140       -0.01350
Br         2.49660       -2.13500        2.55900
C          2.79280       -1.67100       -2.14900
C          1.92040       -1.07680       -2.96290
C          4.41590       -3.11990       -0.02500
N          5.78360       -2.81620       -0.06670
C          6.76150       -1.67850       -0.22030
C          7.63140       -1.95880       -1.48240
C          6.73290       -1.88330       -2.72120
C          6.23240       -0.44520       -2.87860
C          5.53910        0.05710       -1.60380
C          6.30600       -0.20250       -0.32660
C          6.38520       -4.00630        0.18160
C          5.48180       -5.00070        0.30020
N          4.26120       -4.46980        0.19020
C          2.99710       -5.21440        0.02420
C          2.89820       -5.73920       -1.43990
C          3.67570       -7.05110       -1.69030
C          3.13430       -8.14320       -0.76480
C          3.37520       -7.73590        0.69520
C          2.69450       -6.37900        1.01990
H          1.45440        2.73750        0.55700
H          3.42640        0.60100        1.50000
H          2.18750        1.47140        2.51590
H          3.50160        2.40040        1.71040
H          3.13950        0.92390       -1.15920
H          3.45810        2.68440       -0.86740
H          1.98870        2.12330       -1.74360
H         -0.73330        2.14520        0.25930
H         -2.20570        0.15260       -0.43370
H         -1.87680       -2.48950       -0.19220
H         -0.98990       -1.73330       -3.05460
H         -2.45890       -1.13510       -2.21690
H         -2.32530       -2.85830       -2.59100
H          0.70640       -3.28180       -1.64530
H         -0.75370       -4.30710       -1.43810
H          0.13420       -3.77300        0.02110
H          3.67290       -2.09820       -2.61090
H          1.01920       -0.60410       -2.61090
H          2.13570       -1.04980       -4.02820
H          7.42480       -1.68660        0.67640
H          8.10760       -2.95580       -1.44210
H          8.46290       -1.22540       -1.57580
H          5.88630       -2.59460       -2.60740
H          7.29230       -2.18290       -3.63050
H          5.52520       -0.38230       -3.73500
H          7.10520        0.20420       -3.09730
H          4.64410       -0.50020       -1.43520
H          5.31160        1.13850       -1.71500
H          5.72960        0.12260        0.56450
H          7.22060        0.43850       -0.36780
H          7.45610       -4.16430        0.24770
H          5.72710       -6.03820        0.43210
H          2.21030       -4.45290        0.15380
H          3.24700       -4.95780       -2.14840
H          1.83420       -5.95370       -1.67210
H          4.76770       -6.93300       -1.52900
H          3.53260       -7.37160       -2.74600
H          3.63460       -9.11520       -0.97970
H          2.04560       -8.28450       -0.95590
H          4.46470       -7.70980        0.88010
H          2.95850       -8.52930        1.35480
H          2.88730       -6.07940        2.07040
H          1.60630       -6.58740        0.92360
