62

C          0.90100       -0.64300       -0.00200
N         -0.35660       -1.20250        0.12790
C         -0.79690       -2.61380        0.27080
C          0.00110       -3.65290        0.90480
C          1.21880       -3.42550        1.78320
C         -0.39090       -4.99680        0.84130
C         -1.57810       -5.38640        0.25400
C         -1.95430       -6.83720        0.15770
C         -2.44280       -4.41400       -0.21040
C         -2.10860       -3.04940       -0.19910
C         -3.21080       -2.14530       -0.69330
C         -1.16650       -0.12480        0.19670
C         -0.45120        1.02880        0.09460
N          0.85970        0.78100       -0.06900
C          1.91650        1.87050       -0.26210
C          1.71420        3.32790       -0.27060
C          0.43130        4.12230       -0.43190
C          2.83920        4.20450       -0.17940
C          4.14550        3.72480       -0.12400
C          5.36370        4.57470        0.07300
C          4.35220        2.39730       -0.32020
C          3.29390        1.52350       -0.46600
C          3.69180        0.19950       -0.84290
Au         2.65840       -1.88140       -0.01350
Br         1.78950       -3.04000       -2.04500
C          3.55430       -0.95020        1.87920
C          4.49100       -1.41240        2.73670
O          4.33420       -3.06230       -0.02450
C          4.38550       -4.25620       -0.58730
N          5.60300       -4.82110       -0.47410
C          6.33850       -3.89860        0.16390
C          5.54900       -2.80310        0.41590
H          0.96110       -2.72240        2.59820
H          1.54760       -4.36380        2.28330
H          2.12230       -3.15610        1.30100
H          0.23120       -5.77320        1.27360
H         -1.13970       -7.49760        0.52520
H         -2.13960       -7.09130       -0.90780
H         -2.87250       -7.03880        0.74610
H         -3.40350       -4.74220       -0.59280
H         -4.10440       -2.70810       -1.04500
H         -2.87990       -1.49350       -1.52210
H         -3.62370       -1.57610        0.16550
H         -2.21720       -0.10490        0.36350
H         -0.94600        1.96250        0.17960
H         -0.47790        3.61010       -0.73970
H          0.57410        4.79010       -1.31480
H          0.24700        4.77710        0.44390
H          2.69770        5.27920       -0.13920
H          5.12490        5.65160        0.13470
H          6.08460        4.39210       -0.75410
H          5.85420        4.25810        1.02280
H          5.37320        2.02630       -0.36650
H          4.75440       -0.09030       -0.70950
H          3.20400       -0.16660       -1.76200
H          3.20140       -0.11870       -0.06650
H          3.10540       -0.02060        2.20330
H          4.97210       -2.38140        2.69320
H          4.76850       -0.83350        3.61790
H          3.56210       -4.76320       -1.06090
H          7.38790       -4.00680        0.40460
H          5.91630       -1.88910        0.84790
