44

C          0.90100       -0.64300       -0.00200
N          0.82340        0.52420        0.66010
C          1.82120        1.09720        1.55190
C         -0.40140        1.03410        0.41690
C         -1.04890        0.16220       -0.42780
N         -0.23840       -0.89040       -0.68230
C         -0.54490       -2.01840       -1.55110
Au         2.65840       -1.88140       -0.01350
Br         1.74740       -3.19320        2.02550
C          3.41470       -0.79250       -1.70610
C          2.68150       -0.28810       -2.69450
P          4.66930       -3.29850       -0.02670
C          6.21540       -3.22860       -1.00710
C          5.44820       -2.54630        1.43780
C          4.31620       -5.16240        0.03870
C          3.54330       -5.54020       -1.24340
C          5.63070       -5.97370        0.06520
C          3.49550       -5.64530        1.24160
H          2.72180        0.44570        1.59830
H          1.40030        1.19300        2.57540
H          2.11860        2.10160        1.19160
H         -0.79750        1.96380        0.81000
H         -2.04240        0.26120       -0.83510
H         -1.56490       -1.91570       -1.98270
H         -0.49880       -2.97170       -0.97910
H          0.16950       -2.08140       -2.39590
H          4.48550       -0.83020       -1.87850
H          1.61090       -0.40420       -2.73160
H          3.20240        0.07070       -3.58250
H          6.54800       -2.17080       -1.07240
H          5.98680       -3.55850       -2.04370
H          7.04860       -3.81900       -0.58620
H          5.68600       -1.48080        1.24690
H          6.38670       -3.09350        1.67820
H          4.77170       -2.63240        2.31000
H          4.13210       -5.30740       -2.15570
H          2.58800       -4.97200       -1.29770
H          3.29470       -6.62450       -1.25860
H          6.22240       -5.82880       -0.86040
H          5.42250       -7.06570        0.09830
H          6.24150       -5.70460        0.95190
H          2.43240       -5.40810        1.11490
H          3.92400       -5.27590        2.19720
H          3.47310       -6.75630        1.28390
