44

C          0.90100       -0.64300       -0.00200
N          0.83890        0.59140       -0.53280
C          1.91890        1.36440       -1.13210
C         -0.42650        1.03590       -0.34120
C         -1.12990        0.04260        0.30750
N         -0.29000       -0.99140        0.51520
C         -0.64720       -2.29410        1.12180
Au         2.65840       -1.88140       -0.01350
Br         2.56640       -2.03600        2.57020
C          2.73480       -1.75310       -2.15830
C          3.88980       -1.61150       -2.81100
N          4.37500       -3.09110       -0.02470
C          5.25170       -2.96680        1.01690
C          6.43220       -3.70860        1.07100
C          6.73550       -4.60140        0.05130
C          5.83560       -4.78310       -0.99740
C          6.10770       -5.71020       -2.01810
C          5.19320       -5.91960       -3.05560
C          3.95460       -5.25830       -3.05160
C          2.92550       -5.40020       -4.13970
O          1.89360       -4.74560       -4.07060
C          3.09960       -6.23360       -5.37770
C          3.68050       -4.38640       -1.98830
C          4.62840       -4.04540       -1.00480
H          2.86970        0.78920       -1.10120
H          2.06670        2.29830       -0.54900
H          1.66880        1.62160       -2.17960
H         -0.80970        2.01110       -0.63720
H         -2.17520        0.07900        0.60540
H         -1.71150       -2.30760        1.39900
H         -0.05080       -2.46920        2.03140
H         -0.44530       -3.09470        0.38000
H          1.89300       -1.36010       -2.72120
H          4.83240       -1.58490       -2.27670
H          3.84520       -1.23580       -3.83590
H          5.07830       -2.25230        1.80160
H          7.11830       -3.57790        1.89780
H          7.65690       -5.16920        0.09780
H          7.03570       -6.26780       -2.01870
H          5.46430       -6.61750       -3.83080
H          4.03580       -6.81400       -5.40120
H          3.09130       -5.56270       -6.26500
H          2.24680       -6.93790       -5.46320
H          2.69370       -3.98880       -1.94490
