40

C          0.90100       -0.64300       -0.00200
N         -0.35300       -1.11820       -0.01270
C         -0.76570       -2.52590        0.02020
C         -1.16560       -0.05170        0.02920
C         -0.37980        1.08370        0.05880
N          0.92230        0.71190        0.05270
C          2.08460        1.58280        0.01300
C          1.94200        2.98900       -0.00490
C          3.06310        3.82420       -0.07490
C          4.34500        3.27750       -0.13120
C          4.50840        1.89450       -0.12150
C          3.39280        1.05600       -0.05230
Au         2.65840       -1.88140       -0.01350
Br         2.51720       -1.73860        2.46950
C          2.60440       -1.88750       -2.13340
C          1.65740       -1.31740       -2.88300
N          4.37500       -3.09110       -0.02470
C          4.65220       -3.82920        1.09200
C          5.76780       -4.66690        1.14880
C          6.69160       -4.64110        0.11020
Cl         8.15510       -5.60150        0.20540
C          6.45170       -3.83070       -0.99430
C          5.25600       -3.11160       -1.07400
H          0.12600       -3.18400        0.02790
H         -1.40670       -2.75240       -0.84360
H         -1.33460       -2.70080        0.96210
H         -2.24660       -0.08540        0.04660
H         -0.75510        2.09660        0.07810
H          0.97060        3.45740        0.02500
H          2.93750        4.89900       -0.09110
H          5.21120        3.92470       -0.18670
H          5.50240        1.46770       -0.17310
H          3.57630        0.00180       -0.05910
H          3.32800       -2.43460       -2.70420
H          0.82450       -0.77040       -2.47530
H          1.70870       -1.42190       -3.96360
H          3.94520       -3.88110        1.90170
H          5.91410       -5.32000        2.00010
H          7.19130       -3.74300       -1.78100
H          5.16200       -2.44610       -1.90900
