31

C         -0.18800       -1.35400       -0.00200
N         -0.51230       -0.49080       -0.99890
C         -1.03520       -0.78940       -2.32340
C         -0.16300        0.73530       -0.56010
Cl        -0.34600        2.23060       -1.46360
C          0.38130        0.61230        0.69710
Cl         0.97680        1.93800        1.69320
N          0.38410       -0.69360        1.02980
C          0.85600       -1.27490        2.28660
Au        -0.49020       -3.48260       -0.01010
Br         1.91770       -3.82110       -0.90220
C         -2.48900       -3.20170        0.73050
C         -3.10760       -2.01760        0.76300
O         -0.77830       -5.51230       -0.01770
C          0.17830       -6.40800       -0.20550
C         -0.34560       -7.67880       -0.15290
C         -1.68770       -7.52820        0.06640
C         -1.91680       -6.17270        0.14420
H         -1.16860       -1.88050       -2.46470
H         -0.29960       -0.42980       -3.08180
H         -1.99180       -0.25570       -2.48700
H          1.21170       -0.48230        2.98050
H          1.69340       -1.97100        2.08890
H          0.02400       -1.81560        2.78320
H         -3.05830       -4.00170        1.16110
H         -2.65730       -1.10770        0.40120
H         -4.10550       -1.94550        1.18550
H          1.22330       -6.22630       -0.35880
H          0.19400       -8.60960       -0.26570
H         -2.42270       -8.31740        0.15260
H         -2.90360       -5.78580        0.27890
