55

C          2.32700        0.03400        0.00000
N          1.49230        1.12750        0.11720
C          1.77820        2.58450        0.28090
C          3.24990        2.88210        0.56920
C          1.32640        3.42130       -0.93390
C          0.24420        0.60230        0.06990
C          0.32850       -0.76390       -0.04020
C         -0.80590       -1.57940       -0.10190
C         -2.06490       -0.95940       -0.05630
C         -2.16460        0.44170        0.05170
C         -1.00460        1.23580        0.12840
N          1.62270       -1.12630       -0.09090
C          2.13630       -2.49410       -0.22500
C          2.09260       -3.28580        1.06890
C          1.76900       -2.69700        2.31100
C          1.78500       -3.45980        3.48360
C          2.10170       -4.81870        3.43410
C          2.40640       -5.41830        2.20900
C          2.40050       -4.65820        1.03260
Au         4.47690        0.05800        0.00140
Br         4.20770       -0.13110        2.48110
C          4.40330        0.20600       -2.12170
C          3.29560        0.21080       -2.86840
N          6.57670        0.08150        0.00280
C          7.20030       -0.24120        1.18330
C          8.58970       -0.29320        1.30310
C          9.38070        0.07130        0.22700
F         10.73150        0.07070        0.33860
C          8.77180        0.44430       -0.96130
C          7.37690        0.40540       -1.07000
H          1.20820        2.94500        1.16750
H          3.90490        2.49720       -0.23770
H          3.53580        2.44520        1.54410
H          3.39940        3.98180        0.65480
H          1.90930        3.16630       -1.84220
H          1.48040        4.50200       -0.71210
H          0.25160        3.30870       -1.16560
H         -0.72750       -2.65470       -0.18410
H         -2.96230       -1.56200       -0.10690
H         -3.14180        0.90820        0.08070
H         -1.10680        2.30720        0.22090
H          3.19090       -2.47540       -0.57040
H          1.54080       -3.00880       -1.01230
H          1.52880       -1.64600        2.38870
H          1.55720       -2.99440        4.43410
H          2.11460       -5.40530        4.34450
H          2.64820       -6.47420        2.17430
H          2.64990       -5.13920        0.09730
H          5.28050        0.23640       -2.72580
H          2.30050        0.15500       -2.46690
H          3.39460        0.25130       -3.95100
H          6.65340       -0.55500        2.04300
H          9.04420       -0.61440        2.23220
H          9.37570        0.77230       -1.79810
H          7.00860        0.75700       -1.99970
