78

C          1.02400       -0.65300       -0.05500
N          0.95440        0.66680       -0.04160
C          2.01270        1.69140       -0.01620
C          3.32580        1.49550       -0.56890
C          3.68790        0.38610       -1.50750
C          4.36290        2.42510       -0.32830
C          4.14350        3.57560        0.41710
C          5.24180        4.53520        0.77190
C          2.86220        3.87060        0.82160
C          1.78700        3.00080        0.59240
C          0.47110        3.60280        1.05910
C         -0.43320        1.03600        0.05690
C         -1.20720       -0.21320       -0.23330
N         -0.27910       -1.26390        0.02010
C         -0.66240       -2.66260        0.20620
C         -1.89530       -3.20600       -0.33770
C         -3.02380       -2.50480       -1.06700
C         -2.17710       -4.58200       -0.18810
C         -1.33510       -5.43750        0.49890
C         -1.63560       -6.90050        0.61260
C         -0.21350       -4.92580        1.11300
C          0.13140       -3.57170        1.00230
C          1.30950       -3.17930        1.84080
Au         2.78020       -1.86970       -0.29550
Br         1.77720       -2.89080       -2.45410
C          3.61280       -1.02220        1.49640
C          2.95780       -0.26000        2.37670
N          4.49560       -3.05820       -0.53040
C          5.04450       -3.55680        0.62140
C          6.09070       -4.47880        0.59450
C          6.65940       -4.84190       -0.61460
C          6.21510       -4.23450       -1.78630
C          6.93550       -4.44690       -2.96970
C          6.67130       -3.69150       -4.09660
C          5.65910       -2.71360       -4.08160
C          5.48670       -1.75370       -5.23200
O          4.55200       -0.96870       -5.20720
C          6.46980       -1.61210       -6.37790
C          4.84990       -2.59570       -2.91560
C          5.11100       -3.34740       -1.74270
H          2.81930       -0.22170       -1.79880
H          4.51560       -0.22750       -1.10150
H          4.04470        0.84280       -2.46330
H          5.35540        2.24550       -0.72440
H          6.21890        4.22620        0.35300
H          5.33590        4.57570        1.88120
H          4.99280        5.55530        0.40710
H          2.70450        4.80920        1.34700
H          0.19630        3.28240        2.08120
H         -0.33650        3.53030        0.31430
H          0.53680        4.71380        1.06270
H         -0.73440        1.77530       -0.71750
H         -0.63610        1.34860        1.10080
H         -1.40010       -0.22010       -1.32940
H         -2.10860       -0.23240        0.41920
H         -3.04660       -1.42330       -1.18130
H         -3.97460       -2.69870       -0.51820
H         -3.12480       -2.91930       -2.08920
H         -3.08460       -4.99420       -0.61940
H         -2.57050       -7.16920        0.07850
H         -1.73840       -7.18010        1.68120
H         -0.79740       -7.47550        0.16280
H          0.40200       -5.60620        1.69310
H          1.70740       -4.01040        2.46380
H          1.03640       -2.36190        2.54020
H          2.13870       -2.94860        1.21430
H          4.66870       -1.17180        1.68770
H          1.91320       -0.01120        2.27260
H          3.49230        0.15070        3.22780
H          4.60110       -3.35610        1.58210
H          6.45800       -4.91730        1.51340
H          7.49350       -5.53620       -0.62230
H          7.77020       -5.13810       -2.99490
H          7.31210       -3.84300       -4.94750
H          7.34430       -2.28300       -6.33320
H          6.87630       -0.57780       -6.39150
H          5.95410       -1.79100       -7.34210
H          4.11630       -1.81750       -2.89950
