67

C          1.02400       -0.65300       -0.05500
N          0.99200        0.67050       -0.29790
C          2.01370        1.70240       -0.56930
C          1.74400        2.93180       -1.32330
C          0.52170        3.28860       -2.15830
C          2.69410        3.97980       -1.33060
C          3.89730        3.87830       -0.64730
C          4.90300        4.98370       -0.60180
C          4.17720        2.72480        0.04090
C          3.26850        1.67600        0.08940
C          3.63800        0.59120        0.95380
C         -0.31190        1.18300        0.04140
C         -1.20780        0.01160        0.10370
N         -0.35380       -1.13530        0.20920
C         -0.95740       -2.42800        0.58450
C         -0.20790       -3.63000        0.56230
C          1.04600       -3.73900       -0.19050
C         -0.66610       -4.80250        1.16240
C         -1.91100       -4.86340        1.75470
C         -2.33360       -6.07750        2.52180
C         -2.77510       -3.79380        1.59960
C         -2.36180       -2.58840        0.99850
C         -3.51830       -1.59680        0.82740
Au         2.78020       -1.86970       -0.29550
Br         3.18960       -1.94900        2.24350
C          2.51000       -1.88940       -2.42120
C          1.62850       -1.14620       -3.09760
N          4.49560       -3.05820       -0.53040
C          4.59020       -4.00710       -1.51890
C          5.70040       -4.85370       -1.61270
C          6.74660       -4.71890       -0.70900
C          6.66300       -3.75480        0.28620
C          5.52380       -2.94980        0.37160
H         -0.19330        2.48240       -2.38220
H          0.84880        3.61410       -3.16940
H         -0.00150        4.15980       -1.69630
H          2.49080        4.89920       -1.87020
H          4.56240        5.87700       -1.15820
H          5.86450        4.62320       -1.02680
H          5.06920        5.26610        0.46180
H          5.11130        2.66310        0.58770
H          4.58180        0.72480        1.51700
H          3.80780       -0.24390        0.27510
H          2.80290        0.51290        1.68390
H         -0.80810        1.94300       -0.56120
H         -0.20040        1.64350        1.05220
H         -1.80050       -0.08960       -0.83500
H         -1.80530        0.20750        0.99800
H          0.88290       -3.19880       -1.14390
H          1.23470       -4.77900       -0.52760
H          1.86020       -3.47590        0.47310
H         -0.02970       -5.67850        1.17710
H         -1.49820       -6.80470        2.60910
H         -3.20530       -6.56440        2.04490
H         -2.60280       -5.76170        3.55450
H         -3.78410       -3.90210        1.98400
H         -4.50590       -2.05310        1.06030
H         -3.61230       -1.32300       -0.24690
H         -3.50840       -0.71400        1.48490
H          3.12330       -2.49650       -3.04390
H          0.95740       -0.44650       -2.63430
H          1.59000       -1.25850       -4.18060
H          3.78390       -4.20980       -2.19640
H          5.73860       -5.62460       -2.37200
H          7.61280       -5.36560       -0.77230
H          7.47320       -3.63320        0.99410
H          5.51290       -2.20400        1.14490
