93

P          0.90940        0.00570        0.04190
C         -0.04720        1.43230        1.07840
C         -1.59890        1.50410        1.14470
C          0.35180        1.43670        2.59150
C          0.34380        2.83730        0.55540
C          0.50630        0.45890       -1.86070
C          1.18730        1.75500       -2.35220
C          0.97780       -0.60070       -2.89850
C         -1.00520        0.56890       -2.19430
C          0.14260       -1.63370        0.79620
C         -1.40930       -1.67540        0.64950
C          0.67530       -2.85820        0.03730
C          0.41530       -1.96610        2.28680
Au         3.36940        0.00570        0.04190
Br         3.36940       -1.99500       -1.60290
C          3.36940        1.66660        1.40720
C          3.52810        2.99080        1.35130
P          5.82940        0.00570        0.04190
C          6.55540       -0.85890       -1.38530
C          6.27680       -0.25920       -2.62490
C          6.55710       -0.89260       -3.82110
C          7.11940       -2.17230       -3.83410
O          7.30590       -2.85960       -4.98480
C          6.85850       -2.44070       -6.23330
C          7.43750       -2.77730       -2.59720
C          7.15950       -2.12860       -1.37750
C          6.33870        1.73270        0.18710
C          7.18120        2.16130        1.22060
C          7.63010        3.49000        1.26260
C          7.23930        4.41460        0.26210
O          7.65750        5.69630        0.24620
C          8.48600        6.29700        1.16950
C          6.37720        3.97860       -0.74020
C          5.93080        2.66200       -0.78650
C          6.16160       -1.10330        1.41070
C          5.11200       -1.66600        2.13860
C          5.38350       -2.44520        3.26650
C          6.71440       -2.66820        3.67790
O          7.02480       -3.39000        4.78690
C          6.10980       -3.91430        5.67560
C          7.76100       -2.11650        2.93150
C          7.48770       -1.33300        1.80750
H         -2.06950        0.73410        1.74800
H         -2.11460        1.60370        0.19360
H         -1.90030        2.42430        1.69930
H         -0.05140        0.61000        3.16420
H         -0.07440        2.31650        3.12270
H          1.40280        1.49060        2.81810
H         -0.27710        3.12910       -0.30510
H          1.39220        2.91840        0.27370
H          0.12730        3.64230        1.29580
H          2.28310        1.71360       -2.19860
H          0.80180        2.68550       -1.94380
H          1.00200        1.89430       -3.44610
H          2.05480       -0.53230       -3.08500
H          0.59630       -0.37140       -3.92030
H          0.60920       -1.61320       -2.70530
H         -1.50850        1.39890       -1.69200
H         -1.54970       -0.38570       -2.08910
H         -1.16570        0.81820       -3.26690
H         -1.78420       -1.22860       -0.26940
H         -1.92960       -1.21790        1.49700
H         -1.81680       -2.70640        0.69000
H          0.49010       -2.80300       -1.03810
H          0.15940       -3.78860        0.36930
H          1.74560       -3.01190        0.26110
H         -0.13920       -1.34910        2.99750
H          1.49260       -1.98560        2.53280
H         -0.01430       -2.96810        2.52770
H          3.36530        1.25810        2.40950
H          3.63740        3.55960        0.44320
H          3.54330        3.52100        2.30750
H          5.78410        0.68730       -2.69220
H          6.28870       -0.38480       -4.74330
H          7.08800       -3.21340       -6.98950
H          7.35510       -1.48990       -6.52720
H          5.75580       -2.29040       -6.21420
H          7.86060       -3.77350       -2.58750
H          7.35500       -2.65950       -0.46080
H          7.51450        1.46810        1.97900
H          8.29380        3.78580        2.06440
H          8.65120        7.35260        0.88830
H          9.46520        5.77370        1.19460
H          8.01220        6.26490        2.17790
H          6.05660        4.67770       -1.51410
H          5.26400        2.38620       -1.58610
H          4.08500       -1.48280        1.85290
H          4.54970       -2.85130        3.82210
H          6.65060       -4.43130        6.49400
H          5.45240       -4.64640        5.16160
H          5.49840       -3.09760        6.11740
H          8.78970       -2.27280        3.23320
H          8.30920       -0.88750        1.25960
