83

N         -1.39000       -0.11200       -0.05400
C         -0.83230        1.13670        0.05940
C          0.55710        1.32600        0.02630
F          1.08150        2.57540       -0.03310
C          1.40040        0.22380        0.01010
C          0.84940       -1.04260       -0.07450
C         -0.53440       -1.18310       -0.19960
Au        -3.47560       -0.20170       -0.28210
Br        -3.20490       -2.11690       -2.00450
C         -3.70040        1.38810        1.14780
C         -4.76770        1.72200        1.84830
C         -5.61100       -0.29360       -0.51560
N         -6.31190       -1.54210       -0.75390
C         -6.12810       -3.09620       -0.82670
C         -5.20290       -3.89580       -0.00900
C         -4.29730       -3.51090        1.12640
C         -2.86290       -3.47270        0.63930
C         -4.93880       -2.46330        2.01420
C         -5.13360       -5.34310       -0.09530
C         -5.94860       -6.07230       -0.84840
C         -6.91860       -5.44100       -1.53180
C         -7.05950       -4.00130       -1.58440
C         -8.28520       -3.64070       -2.43010
C         -8.15580       -4.21750       -3.85290
C         -9.55770       -4.17880       -1.73810
C         -7.62100       -1.17670       -0.55800
C         -7.75070        0.15420       -0.31260
N         -6.55370        0.75160       -0.28730
C         -6.52310        2.26160       -0.27450
C         -7.19730        3.07440        0.75170
C         -8.07360        2.54320        1.89850
C         -7.66370        3.05080        3.29990
C         -9.53760        2.98980        1.64540
C         -7.14600        4.49000        0.68580
C         -6.55650        5.15880       -0.35580
C         -6.07070        4.44590       -1.41750
C         -6.06940        3.03560       -1.42740
C         -5.90800        2.46940       -2.83540
C         -4.56830        1.81800       -3.14440
C         -7.18530        1.65770       -3.15640
H         -1.44200        2.02100       -0.01030
H          2.47640        0.34420        0.02460
H          1.49110       -1.91600       -0.07790
H         -0.86430       -2.19070       -0.31580
H         -2.82410        1.90890        1.49740
H         -5.67900        1.16220        1.80030
H         -4.68480        2.50250        2.59540
H         -4.25030       -4.35660        1.85730
H         -2.73170       -4.12090       -0.27550
H         -2.07710       -3.84710        1.32060
H         -2.71620       -2.41720        0.46140
H         -5.05640       -1.50770        1.50630
H         -4.37450       -2.30830        2.94650
H         -5.96080       -2.83690        2.27060
H         -4.41400       -5.93070        0.48290
H         -5.87350       -7.16050       -0.84870
H         -7.57780       -6.12290       -2.04320
H         -8.34190       -2.54790       -2.53630
H         -8.13800       -5.32930       -3.88760
H         -7.21980       -3.86320       -4.33000
H         -9.03120       -3.92100       -4.46040
H         -9.61010       -5.29180       -1.73740
H        -10.46410       -3.81420       -2.25760
H         -9.60740       -3.86530       -0.67300
H         -8.46990       -1.83260       -0.54400
H         -8.70440        0.65630       -0.18970
H         -8.05610        1.43980        1.92110
H         -7.70890        4.15750        3.38500
H         -6.65050        2.72410        3.57700
H         -8.36470        2.65050        4.06340
H         -9.64770        4.09770        1.66860
H        -10.21750        2.58610        2.42430
H         -9.89790        2.64280        0.65370
H         -7.61070        5.12070        1.43150
H         -6.56830        6.24300       -0.38590
H         -5.75230        5.02590       -2.27810
H         -5.95180        3.30550       -3.57770
H         -4.34780        0.98250       -2.46180
H         -3.76520        2.58730       -3.05710
H         -4.56940        1.45850       -4.19610
H         -7.13820        0.59320       -2.86060
H         -7.91620        2.06310       -3.88910
H         -7.96230        2.04440       -2.48810
