29

N         -1.39000       -0.11200       -0.05400
C         -0.78560        0.98920        0.49470
C          0.60760        1.08850        0.60080
C          1.40230        0.03560        0.16510
F          2.75540        0.10990        0.25520
C          0.80290       -1.09440       -0.36480
C         -0.58880       -1.15020       -0.46910
Au        -3.47560       -0.20170       -0.28210
Br        -3.24720       -2.72230       -0.14750
C         -3.87880        1.86220       -0.35740
C         -2.99910        2.81330       -0.67470
O         -5.51160       -0.28930       -0.50470
C         -5.88560       -1.40200       -1.27310
C         -7.39950       -1.40470       -1.46850
C         -5.19150       -1.29070       -2.63770
H         -1.36080        1.80920        0.88280
H          1.06530        1.97620        1.01430
H          1.40320       -1.92820       -0.70600
H         -0.97710       -2.03020       -0.93220
H         -4.91380        2.17090       -0.26730
H         -1.98720        2.58280       -0.96810
H         -3.32910        3.83650       -0.78310
H         -5.66960       -2.34800       -0.75930
H         -7.73890       -0.47150       -1.96570
H         -7.90480       -1.49750       -0.48420
H         -7.69570       -2.27490       -2.09520
H         -5.48670       -0.34270       -3.14070
H         -5.46360       -2.14290       -3.29410
H         -4.08880       -1.27570       -2.51750
