35

N         -0.65900       -1.22800       -0.05100
C         -1.12680       -0.05100       -0.60300
C         -2.21320       -0.03370       -1.64330
C         -0.41950        1.15280       -0.43360
C          0.76920        1.16270        0.28210
C          1.27580       -0.03290        0.76970
C          0.56950       -1.21910        0.55460
Au        -1.57560       -3.10440       -0.27260
Br         0.68050       -3.96320       -0.97130
C         -3.45360       -2.26540        0.33910
C         -3.70470       -1.04570        0.81800
N         -2.49230       -4.98070       -0.49410
C         -1.69720       -6.10010       -0.53120
C         -2.24110       -7.39480       -0.61430
C         -1.39550       -8.61760       -0.41120
C         -3.60570       -7.54350       -0.82860
C         -4.41060       -6.42060       -0.85570
C         -3.85150       -5.16260       -0.62770
H         -2.57030       -1.05240       -1.89240
H         -1.75060        0.35370       -2.58580
H         -3.04220        0.64980       -1.38190
H         -0.75530        2.06970       -0.90470
H          1.32080        2.08540        0.41400
H          2.21370       -0.04260        1.31020
H          0.97450       -2.12970        0.96900
H         -4.32270       -2.87160        0.45290
H         -2.97210       -0.27860        0.93170
H         -4.70440       -0.82230        1.18230
H         -0.64490       -6.03050       -0.35830
H         -0.35740       -8.35420       -0.11710
H         -1.38470       -9.25600       -1.31460
H         -1.83210       -9.19790        0.43510
H         -4.04760       -8.52440       -0.95230
H         -5.47190       -6.51890       -1.04910
H         -4.54940       -4.36860       -0.73420
