58

P          1.05010       -0.04680        0.07280
O         -0.29020        0.81810       -0.53170
C          0.05240        2.20030       -0.40200
O          0.66940       -1.56590       -0.61320
C          0.72140       -1.50910       -2.01560
O          0.71410        0.32870        1.71410
C         -0.65230        0.03290        1.97960
Au         3.51010       -0.04680        0.07280
Br         3.51010       -2.12470        1.61890
C          3.51010        1.67810       -1.21060
C          3.12650        1.57850       -2.48040
P          5.97010       -0.04680        0.07280
N          6.92700       -1.25470       -0.86730
C          6.35700       -1.33100       -2.21620
C          8.41400       -1.39330       -0.95800
C          9.18780       -1.18750        0.31260
N          9.02780        0.16140        0.87980
C          9.02420        1.42860        0.11780
C          7.95270        1.60970       -1.02530
N          6.50270        1.48260       -0.69900
C          6.09710        2.64730        0.12390
N          6.60690       -0.64500        1.67970
C          6.20200       -1.76380        2.52520
C          7.27780        0.38400        2.49660
C          8.76950        0.22010        2.31900
H         -0.40460        2.78630       -1.21780
H          1.13930        2.43720       -0.47350
H         -0.30250        2.60590        0.56850
H          0.03580       -2.29260       -2.40500
H          1.74680       -1.74250       -2.36430
H          0.34910       -0.55630       -2.44960
H         -0.83140        0.03600        3.07000
H         -0.96460       -0.96360        1.59180
H         -1.33560        0.81710        1.57910
H          3.71520        2.66810       -0.83360
H          2.83490        0.62200       -2.89530
H          3.06990        2.47170       -3.09670
H          5.25090       -1.40250       -2.17510
H          6.72750       -2.22890       -2.75190
H          6.62770       -0.43090       -2.80800
H          8.87190       -0.80790       -1.78300
H          8.62150       -2.43930       -1.27700
H         10.25980       -1.38940        0.13590
H          8.82300       -1.97040        1.02520
H         10.03220        1.57160       -0.32350
H          8.91970        2.26960        0.83650
H          8.16410        1.03420       -1.92210
H          8.12480        2.63650       -1.41570
H          5.94160        3.52620       -0.53560
H          6.86370        2.96880        0.85010
H          5.18100        2.45100        0.71770
H          5.37990       -1.42060        3.19520
H          7.00260       -2.02680        3.24840
H          6.03110       -2.68190        1.93610
H          6.96860        1.38850        2.20960
H          7.04470        0.31370        3.58480
H          9.09420       -0.71600        2.82100
H          9.33590        1.03720        2.80860
