52

N         -1.40730       -0.37310       -0.22370
C         -0.80520       -1.61900       -0.10710
C          0.58120       -1.75980       -0.09830
Cl         1.29800       -3.36430       -0.07400
C          1.38400       -0.63080       -0.13290
C          0.78820        0.62440       -0.22220
C         -0.61010        0.72410       -0.30900
Au        -3.47560       -0.20170       -0.28210
Br        -3.58410       -2.44420        1.00930
C         -3.38570        1.65980       -1.35400
C         -3.52910        1.82720       -2.66600
P         -5.88040       -0.07230       -0.33640
C         -6.91790        1.35070       -0.62510
C         -7.32480        1.84220       -1.87630
C         -7.89720        3.12290       -1.95790
C         -8.05350        3.90750       -0.80700
C         -7.65240        3.41560        0.43090
C         -7.08590        2.15370        0.51550
C         -6.07600       -1.03820       -1.91760
C         -4.95410       -1.51550       -2.63280
C         -5.10860       -2.27150       -3.81170
C         -6.38060       -2.56900       -4.30090
C         -7.50430       -2.11910       -3.61080
C         -7.35770       -1.36530       -2.43190
C         -6.61040       -1.11300        1.01050
C         -7.48140       -2.21430        0.81810
C         -8.01430       -2.88470        1.93640
C         -7.68790       -2.47270        3.22720
C         -6.83090       -1.38900        3.39140
O         -6.53920       -1.01100        4.51320
N         -6.31900       -0.74160        2.29230
H         -1.36610       -2.52220       -0.12860
H          2.46100       -0.72990       -0.09950
H          1.40870        1.50980       -0.22550
H         -1.03590        1.71330       -0.35390
H         -3.05590        2.51890       -0.77870
H         -3.67220        0.99230       -3.33770
H         -3.38750        2.82620       -3.07670
H         -7.15150        1.29060       -2.78760
H         -8.18460        3.52980       -2.91690
H         -8.46170        4.90670       -0.86990
H         -7.74190        4.01790        1.32620
H         -6.73240        1.82380        1.48270
H         -3.95280       -1.32220       -2.28330
H         -4.24220       -2.63620       -4.35200
H         -6.49610       -3.15210       -5.21150
H         -8.48990       -2.36220       -3.99460
H         -8.25520       -1.04380       -1.92270
H         -7.77690       -2.56530       -0.15630
H         -8.69090       -3.72460        1.81540
H         -8.09860       -2.98640        4.09260
H         -5.68240        0.06880        2.45320
