37

N         -0.65900       -1.22800       -0.05100
C         -1.42420       -0.12990        0.20300
F         -2.75980       -0.26780        0.38080
C         -0.82620        1.12690        0.32590
C          0.55030        1.24890        0.13860
C          1.31480        0.11400       -0.14020
C          0.68920       -1.13260       -0.20770
Au        -1.57560       -3.10440       -0.27260
Br        -1.07540       -3.64200        2.21110
C         -1.99090       -2.65800       -2.33430
C         -1.67240       -1.50920       -2.93430
N         -2.49230       -4.98070       -0.49410
C         -1.90920       -6.13810       -0.02150
N         -0.52820       -6.15620        0.40680
C          0.43230       -5.20350       -0.14250
C          0.04550       -7.23700        1.19370
C         -2.59660       -7.36230       -0.19490
C         -3.82470       -7.38730       -0.84560
C         -4.36680       -6.21470       -1.35070
C         -3.67230       -5.01910       -1.17780
H         -1.42520        1.99980        0.55630
H          1.02590        2.21920        0.20540
H          2.37890        0.20010       -0.30930
H          1.26500       -2.01740       -0.44210
H         -2.47990       -3.41090       -2.94060
H         -1.17520       -0.70260       -2.41910
H         -1.91330       -1.36700       -3.98300
H         -0.02850       -4.48080       -0.83870
H          1.19650       -5.74460       -0.73480
H          0.96260       -4.66250        0.66930
H         -0.70720       -7.94880        1.57690
H          0.56690       -6.81480        2.07720
H          0.78640       -7.79560        0.57840
H         -2.17720       -8.31390        0.09100
H         -4.34010       -8.32720       -0.99750
H         -5.31090       -6.23130       -1.87380
H         -4.11550       -4.10750       -1.55080
