35

N         -0.65900       -1.22800       -0.05100
C         -1.36810       -0.09620       -0.31080
F         -2.64010       -0.18940       -0.76700
C         -0.74300        1.15350       -0.22930
C          0.58400        1.22670        0.20470
C          1.27670        0.05790        0.51480
C          0.64690       -1.17460        0.34090
Au        -1.57560       -3.10440       -0.27260
Br        -2.72950       -2.81230        2.02770
C         -0.61780       -3.34680       -2.18210
C          0.36400       -2.58270       -2.66320
N         -2.49230       -4.98070       -0.49410
C         -3.84050       -5.13100       -0.25770
C         -4.74260       -3.95920       -0.02440
C         -4.46550       -6.37310       -0.46200
C         -3.72170       -7.46140       -0.88170
C         -2.35870       -7.32310       -1.08490
C         -1.74400       -6.07400       -0.89550
C         -0.22900       -6.05340       -0.87690
H         -1.27540        2.05380       -0.50710
H          1.07260        2.18920        0.29820
H          2.29560        0.10330        0.87900
H          1.16760       -2.09130        0.58110
H         -0.99390       -4.13800       -2.82350
H          0.78030       -1.75340       -2.11780
H          0.75700       -2.78320       -3.65490
H         -4.20130       -3.00060       -0.11940
H         -5.27040       -4.04680        0.94680
H         -5.50040       -3.92760       -0.83870
H         -5.53420       -6.48490       -0.33390
H         -4.19890       -8.42270       -1.04470
H         -1.77580       -8.19330       -1.36060
H          0.19090       -7.07530       -0.99010
H          0.08920       -5.70310        0.13100
H          0.29040       -5.46400       -1.63400
