50

N         -1.47060       -0.14560       -0.06470
C         -0.73860       -1.25680       -0.36240
C          0.63970       -1.27920       -0.12130
C          1.25410       -0.15210        0.42630
C          0.48840        0.97540        0.72770
C         -0.88840        0.95580        0.48190
Au        -3.47560       -0.20170       -0.28210
Br        -3.72240       -1.00880        2.16660
C         -3.27080        0.46820       -2.31470
C         -2.09590        0.61430       -2.93180
P         -5.78900       -0.46210       -0.61230
N         -6.77260       -1.64270       -1.46240
C         -6.08750       -1.86110       -2.75190
C         -6.58850       -2.90930       -0.70200
O         -6.07270        0.82230       -1.62380
C         -6.29290        2.03440       -1.05550
C         -5.49500        3.10810       -1.49320
C         -5.63750        4.38600       -0.95170
C         -6.60010        4.62620        0.02120
C         -7.42770        3.58920        0.45110
C         -7.29260        2.27640       -0.05580
C         -8.24420        1.23950        0.47640
C         -9.59940        1.63120        0.59650
C        -10.56470        0.75380        1.08330
C        -10.19950       -0.52010        1.49760
C         -8.86700       -0.92800        1.41610
C         -7.87950       -0.07750        0.89420
O         -6.61070       -0.56250        0.83050
H         -1.22740       -2.13460       -0.76420
H          1.22380       -2.16420       -0.34290
H          2.31840       -0.15590        0.62680
H          0.95410        1.85080        1.16110
H         -1.49550        1.81400        0.73080
H         -4.14280        0.72100       -2.89810
H         -1.15410        0.40950       -2.44700
H         -2.06800        0.97050       -3.95680
H         -6.16930       -0.96720       -3.39900
H         -6.52670       -2.72510       -3.29130
H         -4.99730       -2.08490       -2.60970
H         -7.00600       -2.85580        0.32330
H         -5.50580       -3.17810       -0.58100
H         -7.09220       -3.76050       -1.20100
H         -4.73910        2.95190       -2.25210
H         -4.99960        5.19440       -1.28680
H         -6.70650        5.61820        0.44590
H         -8.16340        3.82430        1.21420
H         -9.92790        2.61600        0.28040
H        -11.60110        1.06590        1.13880
H        -10.95250       -1.19870        1.87890
H         -8.60760       -1.92160        1.74870
