29

N         -1.44830       -0.06120       -0.04350
C         -0.68630        0.67190       -0.91470
C          0.71800        0.65040       -0.82150
C          1.33300       -0.07090        0.20460
Cl         3.08720       -0.14250        0.32240
C          0.54230       -0.75200        1.12700
C         -0.85130       -0.75550        0.96880
Au        -3.47560       -0.20170       -0.28210
Br        -3.72730        1.91710        1.18600
C         -3.26670       -1.96060       -1.50070
C         -2.11720       -2.54920       -1.83860
N         -5.53080       -0.27370       -0.54890
C         -6.21490       -1.46230       -0.68000
F         -5.62710       -2.65850       -0.44180
C         -7.59150       -1.49090       -0.91250
C         -8.29000       -0.30140       -1.03790
C         -7.61440        0.90280       -0.87700
C         -6.24030        0.89980       -0.60440
H         -1.15170        1.20550       -1.72960
H          1.32960        1.17200       -1.54790
H          1.00780       -1.29020        1.94630
H         -1.45710       -1.29480        1.68250
H         -4.12790       -2.42600       -1.94360
H         -1.15080       -2.19990       -1.50900
H         -2.15490       -3.42530       -2.48610
H         -8.11500       -2.43790       -0.98250
H         -9.35370       -0.31530       -1.24080
H         -8.15220        1.83530       -0.97500
H         -5.74550        1.84990       -0.52640
