94

N         -0.67900        1.19300        0.00100
C          0.27190        0.82330       -0.98130
C          0.64170        1.64950       -2.18930
C          0.95450       -0.43120       -0.95060
C          0.67170       -1.39590       -0.01000
C          1.38150       -2.72620        0.06340
C         -0.36690       -1.15760        0.82380
C         -1.08260        0.05290        0.78980
C         -2.35360       -0.11360        1.63600
Au        -1.69140        3.03290        0.00550
Br        -0.90760        2.22820        2.49770
C         -2.56060        2.13590       -1.68320
C         -3.25800        2.77270       -2.61560
C         -2.72790        4.91650        0.01010
N         -2.07780        6.11910        0.05310
C         -0.61800        6.62960        0.22620
C          0.03540        7.85940       -0.31610
C         -0.44980        8.85130       -1.35700
C         -0.71680        8.14960       -2.69430
C         -1.38330        9.91520       -0.79320
C          1.38560        8.26910        0.09830
C          2.14540        7.55970        0.92160
C          1.68880        6.38430        1.34630
C          0.40910        5.90110        0.97170
C          0.13200        4.62570        1.44560
C          1.36220        3.62550        1.50580
C         -0.92040        4.95270        2.57070
C         -3.13070        7.06900       -0.23170
C         -4.25610        6.26730       -0.87360
N         -4.21650        4.95900       -0.30200
C         -5.52870        4.18370        0.11650
C         -6.79090        4.12980       -0.74900
C         -7.15890        4.77470       -2.07720
C         -7.73140        6.19860       -1.90840
C         -6.19600        4.48130       -3.17110
C         -7.96340        3.37450       -0.36570
C         -8.06940        2.64290        0.76550
C         -7.01530        2.70110        1.62120
C         -5.80540        3.42090        1.37930
C         -5.01070        3.27780        2.65720
C         -4.16450        2.06120        2.57380
C         -4.41400        4.55600        3.17060
H          0.85070        2.70880       -1.98070
H         -0.12220        1.48240       -2.98310
H          1.56230        1.24040       -2.67540
H          1.70120       -0.69250       -1.68700
H          2.18310       -2.80970       -0.69530
H          0.65480       -3.55420       -0.09580
H          1.83640       -2.85710        1.07210
H         -0.64580       -1.96840        1.49540
H         -2.50430       -1.13930        2.03020
H         -3.23330        0.09080        1.00550
H         -2.39150        0.34390        2.62570
H         -2.41270        1.07190       -1.83040
H         -3.41020        3.83180       -2.55960
H         -3.65440        2.21540       -3.46420
H          0.39840        9.51750       -1.67240
H         -1.49940        7.37660       -2.64360
H          0.22120        7.62930       -3.01680
H         -0.95370        8.89970       -3.47490
H         -2.38820        9.61580       -0.49630
H         -1.47140       10.73760       -1.52960
H         -0.90670       10.32220        0.12610
H          1.85540        9.16780       -0.26860
H          3.14050        7.88160        1.21750
H          2.37320        5.83490        1.97900
H         -0.26110        4.21060        0.52440
H          2.02820        3.82080        2.36220
H          1.97800        3.66140        0.56700
H          2.00140        3.58380        2.40530
H         -0.57550        5.57800        3.39090
H         -1.56110        4.38890        3.26330
H         -1.84070        4.65150        2.08190
H         -2.85540        7.76010       -1.02610
H         -3.41240        7.59280        0.70720
H         -3.91550        6.18040       -1.90790
H         -5.26040        6.77030       -0.86090
H         -8.02660        4.27050       -2.56700
H         -7.44220        6.66130       -0.94420
H         -8.84900        6.14060       -1.85810
H         -7.47650        6.83870       -2.77240
H         -5.26120        4.99030       -2.97100
H         -5.26120        4.99010       -2.97080
H         -6.02630        3.38250       -3.18280
H         -8.85600        3.34150       -0.93860
H         -8.96780        2.05990        0.97790
H         -7.20500        2.10550        2.51490
H         -5.66360        3.01340        3.53530
H         -3.46260        2.21650        1.74240
H         -4.80700        1.16710        2.35760
H         -3.68000        1.86670        3.55460
H         -3.79580        5.00690        2.40360
H         -3.86030        4.34040        4.11240
H         -5.23750        5.26350        3.38890
