73

N         -0.67900        1.19300        0.00100
C         -1.01040        0.27390       -0.95840
C         -2.10910        0.55300       -1.93510
C         -0.38630       -0.98020       -0.98520
C          0.61080       -1.28060       -0.05530
C          1.31290       -2.60850       -0.07970
C          0.95930       -0.32120        0.89820
C          0.29500        0.91770        0.92400
C          0.74370        1.97390        1.88760
Au        -1.69140        3.03290        0.00550
Br        -0.06720        3.93100       -1.80100
C         -3.03970        2.28730        1.50510
C         -2.97680        1.05420        2.01160
P         -2.87730        5.18810        0.01070
C         -2.56360        6.14370        1.66300
C         -1.03410        6.40440        1.76210
C         -3.21050        7.55350        1.82560
C         -2.80950        5.24790        2.91960
C         -2.46590        6.29060       -1.49530
C         -2.76930        5.45470       -2.76770
C         -3.41760        7.50080       -1.63110
C         -1.03390        6.90240       -1.49710
C         -4.61160        4.64880        0.33570
C         -5.47650        5.15460        1.31740
C         -6.78030        4.70950        1.45690
C         -7.32940        3.72760        0.61080
N         -8.68570        3.23330        0.81360
C         -9.55510        3.68950        1.89930
C         -9.28890        2.19260       -0.00930
C         -6.47710        3.25070       -0.42310
C         -5.15540        3.70850       -0.55280
H         -2.52850        1.56790       -1.79460
H         -2.92670       -0.18790       -1.77740
H         -1.72940        0.44770       -2.97190
H         -0.67960       -1.71480       -1.72620
H          0.89820       -3.27730       -0.86420
H          1.20130       -3.11330        0.90310
H          2.39270       -2.45520       -0.28800
H          1.75470       -0.53630        1.60230
H          1.55560        1.59730        2.54920
H         -0.09630        2.32970        2.51140
H          1.16550        2.82440        1.30720
H         -3.82390        2.90810        1.89950
H         -2.23850        0.33250        1.70020
H         -3.69210        0.74870        2.76890
H         -0.66790        7.15100        1.05200
H         -0.45470        5.46710        1.61580
H         -0.75670        6.82640        2.75420
H         -2.75630        8.28060        1.13550
H         -2.96450        7.95920        2.83200
H         -4.29760        7.65400        1.70310
H         -2.16020        4.34940        2.87810
H         -3.82030        4.87970        3.12330
H         -2.52760        5.79530        3.84560
H         -3.85550        5.22300       -2.82800
H         -2.29890        4.47220       -2.83460
H         -2.49410        6.01300       -3.68970
H         -4.48330        7.19050       -1.64100
H         -3.20110        8.04550       -2.58110
H         -3.28650        8.25190       -0.84620
H         -0.23770        6.28830       -1.06990
H         -0.99840        7.82420       -0.88840
H         -0.74050        7.22950       -2.51790
H         -5.21280        5.90260        2.01610
H         -7.31310        5.17720        2.26040
H         -9.15670        4.47740        2.54920
H         -9.78980        2.83500        2.56840
H        -10.50090        4.09260        1.48150
H         -8.66660        1.82270       -0.83300
H        -10.23030        2.57220       -0.46070
H         -9.53010        1.31620        0.63060
H         -6.78170        2.52020       -1.15040
H         -4.54610        3.31240       -1.35640
