42

N         -1.44610       -0.08490       -0.00680
C         -0.77480        1.12670        0.11420
C          0.62540        1.23330       -0.01850
C          1.39790        0.08880       -0.04370
O          2.75220        0.16430       -0.17150
C          3.41850        1.37320       -0.28340
C          0.73710       -1.13890        0.06240
C         -0.66550       -1.21690       -0.05430
Au        -3.44250       -0.18870       -0.26390
Br        -2.70930       -0.07970       -2.72110
C         -3.69200       -0.24810        1.81530
C         -3.85000        0.89910        2.51060
P         -5.84730       -0.37640       -0.55710
N         -6.22490       -1.25640       -2.07780
C         -5.72900       -2.62390       -2.21270
C         -7.67710       -1.22000       -2.37110
O         -6.67180       -1.26960        0.62500
C         -6.53630       -0.75320        1.88430
O         -6.49560        1.17940       -0.92080
C         -5.91400        1.69610       -2.11440
H         -1.32300        2.03700        0.26360
H          1.13350        2.18240       -0.07610
H          4.50940        1.24680       -0.34760
H          3.19040        2.01930        0.59040
H          3.06880        1.88720       -1.19590
H          1.30580       -2.02780        0.20100
H         -1.12300       -2.16670       -0.15830
H         -3.69930       -1.16190        2.37200
H         -3.84800        1.85150        2.04540
H         -4.01380        0.88670        3.58730
H         -4.67830       -2.68060       -1.94820
H         -6.00480       -3.12120       -3.14100
H         -6.31030       -3.29040       -1.67820
H         -8.04040       -0.17250       -2.41850
H         -8.22590       -1.74180       -1.56700
H         -7.93980       -1.70350       -3.33850
H         -7.24310       -1.17410        2.61450
H         -6.96310        0.13850        1.81180
H         -5.52680       -0.65100        2.21520
H         -6.33080        2.65680       -2.44970
H         -5.70160        1.01970       -2.97360
H         -5.05450        2.21130       -1.85590
