99

P          0.93170       -0.07300        0.00300
C         -0.08220       -0.88090        1.29930
C          0.19250        1.66760        0.14680
C         -0.28550        2.20950        1.36670
C         -0.83020        3.51090        1.43500
C         -0.92130        4.31200        0.29670
C         -0.49580        3.80670       -0.92060
C          0.03470        2.51290       -0.99400
C         -0.01860       -0.94380       -1.34150
C         -0.02460       -0.32290       -2.61160
C         -0.94270       -0.67930       -3.60340
C         -1.85110       -1.70510       -3.37440
C         -1.81670       -2.39720       -2.16740
C         -0.91880       -2.02830       -1.16050
Au         3.39170       -0.07300        0.00300
Br         3.39170       -2.66300        0.01280
C          3.39170        2.07700       -0.00520
C          4.17340        2.38120        1.08860
C          5.54170       -0.07300        0.00300
N          6.26880        1.25560       -0.20460
C          6.10690        2.98600       -0.51500
C          4.90220        4.05620       -0.95050
C          3.36890        4.13860       -1.31830
C          3.14970        2.93450       -2.42150
C          2.57710        4.64910        0.13160
C          5.10130        5.47010       -1.01610
C          6.17880        6.09740       -0.73210
C          7.22840        5.37050       -0.43210
C          7.29650        3.92320       -0.35150
C          8.75150        3.55240       -0.09990
C          9.27430        2.95620       -1.43290
C          9.76250        4.68530        0.26370
C          7.53450        0.76740       -0.04120
C          7.59610       -0.62690       -0.01310
N          6.40000       -1.21810       -0.11390
C          6.27290       -2.76920       -0.35440
C          7.07100       -3.75830        0.46080
C          8.38790       -3.56140        1.27280
C          8.49800       -4.15650        2.70970
C          9.49690       -4.23540        0.41230
C          6.69570       -5.12530        0.50720
C          5.67040       -5.64340       -0.20990
C          5.06750       -4.86800       -1.17340
C          5.35660       -3.46880       -1.39590
C          4.35400       -2.85370       -2.58280
C          3.04100       -1.88700       -2.55880
C          5.25200       -2.15580       -3.50620
H         -1.17190       -0.72310        1.15690
H          0.20320       -0.46370        2.28450
H          0.19110       -1.95250        1.38170
H         -0.24500        1.65320        2.28350
H         -1.17640        3.91310        2.37690
H         -1.31190        5.32320        0.35170
H         -0.56050        4.42580       -1.81140
H          0.31610        2.23710       -1.97070
H          0.64120        0.48150       -2.84500
H         -0.96970       -0.13540       -4.54120
H         -2.58240       -1.96260       -4.13040
H         -2.52070       -3.19840       -1.98950
H         -1.01030       -2.58030       -0.24520
H          2.44940        2.45430       -0.18370
H          4.78840        1.61980        1.53860
H          4.35900        3.27930        1.64070
H          2.84410        4.90270       -1.88960
H          4.15030        2.49150       -2.67890
H          2.15340        2.79310       -2.82830
H          2.97090        1.87370       -2.18230
H          3.25930        5.05960        0.92260
H          1.61820        4.17630        0.43700
H          2.81560        4.35990        1.17830
H          4.31590        6.19230       -1.27590
H          6.18210        7.18990       -0.78600
H          8.00050        6.07880       -0.26850
H          8.76100        2.95970        0.83150
H          9.22330        3.72140       -2.23720
H          8.67050        2.12490       -1.84420
H         10.31980        2.61710       -1.30980
H          9.91530        5.38830       -0.59430
H         10.75380        4.27870        0.51240
H          9.40260        5.26170        1.15060
H          8.46080        1.21350       -0.00930
H          8.54290       -1.12930       -0.03730
H          8.64870       -2.51660        1.39970
H          8.37240       -5.25930        2.77750
H          7.79540       -3.67090        3.40980
H          9.53270       -3.98430        3.09190
H          9.34400       -5.33730        0.31060
H         10.50930       -4.09030        0.84050
H          9.48860       -3.81220       -0.61540
H          7.19890       -5.85370        1.13730
H          5.38620       -6.68650       -0.04310
H          4.27980       -5.39170       -1.70690
H          3.83400       -3.72400       -3.06190
H          3.25580       -0.89530       -2.10550
H          2.12130       -2.30910       -2.07460
H          2.59440       -1.68350       -3.55450
H          5.85310       -1.49500       -2.85090
H          4.71450       -1.50630       -4.22730
H          5.77540       -2.96530       -4.03520
