34

N          1.03920       -0.06980        0.05990
C          0.86490        0.21210       -1.39070
C          0.55290       -1.44740        0.23410
C          0.29390        0.92430        0.82800
C         -0.62830        0.57850        1.85280
C         -1.46150        1.55630        2.44000
C         -1.40510        2.88180        2.00260
C         -0.48980        3.25630        1.02160
C          0.35490        2.29640        0.45080
Au         3.13920       -0.06980        0.05990
Br         3.13920       -1.76040       -1.90220
C          3.13920        1.33360        1.68870
C          4.09580        2.08650        2.25020
C          5.28920       -0.06980        0.05990
N          5.99990       -0.80760       -0.81850
C          7.28450       -0.57340       -0.50410
C          7.31500        0.28850        0.55630
O          6.08230        0.57400        0.87680
H          0.13590        1.01580       -1.62840
H          0.51770       -0.63270       -2.02500
H          1.83160        0.58370       -1.79560
H         -0.55160       -1.49060        0.06690
H          0.78900       -1.82400        1.24650
H          0.98490       -2.17310       -0.47760
H         -0.74550       -0.43140        2.20440
H         -2.17340        1.26660        3.18800
H         -2.08090        3.61590        2.41350
H         -0.46020        4.27870        0.67250
H          1.02880        2.63350       -0.32750
H          2.19000        1.52430        2.15380
H          5.11410        2.17210        1.94990
H          3.82460        2.74950        3.06690
H          8.13810       -1.00630       -1.00770
H          8.19330        0.68190        1.06210
