79

P          1.07340        0.05520        0.03950
C          0.00560       -1.51970       -0.23600
C         -1.52450       -1.70750        0.08530
C         -2.52810       -1.42270       -1.06880
C         -2.05170       -2.01090       -2.42240
C         -0.55860       -1.77480       -2.73820
C          0.29170       -2.25960       -1.57120
C          0.58450        0.37790        1.87710
C          0.97660       -0.69120        2.93700
C          2.46690       -0.64280        3.31940
C          2.86140        0.74560        3.85250
C          2.48070        1.80280        2.83380
C          0.98550        1.74010        2.50380
C          0.59390        1.21030       -1.52570
C         -0.91260        1.57610       -1.75550
C         -1.48320        2.55950       -0.71080
C         -0.73580        3.89910       -0.81830
C          0.78890        3.70130       -0.80590
C          1.22270        2.61220       -1.80990
Au         3.53340        0.05520        0.03950
Br         3.74940        2.62550       -0.10170
C          3.41590       -1.97100       -0.37690
C          3.73560       -2.38660       -1.60380
N          5.63340        0.05520        0.03950
C          6.00860       -1.20890        0.70360
C          6.23730        1.20970        0.73950
C          6.22170        0.03850       -1.29240
C          5.55700        0.60350       -2.40200
C          6.15750        0.61110       -3.67650
C          7.41960        0.04450       -3.87500
C          8.09950       -0.51520       -2.80370
C          7.52500       -0.50940       -1.53670
H          0.48680       -2.16110        0.52890
H         -1.83820       -1.23630        1.03310
H         -1.64510       -2.80230        0.23320
H         -2.79410       -0.36320       -1.05000
H         -3.51310       -1.85580       -0.83050
H         -2.67760       -1.62550       -3.25500
H         -2.19140       -3.10680       -2.38040
H         -0.38820       -0.74910       -3.01870
H         -0.30060       -2.37120       -3.65010
H          1.33190       -2.19030       -1.85540
H          0.06090       -3.34260       -1.42840
H         -0.52400        0.40300        1.84380
H          0.67410       -1.70750        2.63570
H          0.40440       -0.46560        3.86960
H          3.07320       -0.89270        2.42600
H          2.67790       -1.38590        4.11600
H          3.96170        0.78250        4.02720
H          2.34840        0.97120        4.80790
H          3.05190        1.54250        1.95850
H          2.76510        2.81450        3.19820
H          0.63980        2.57190        1.89560
H          0.44330        1.89250        3.46510
H          0.96150        0.64220       -2.39140
H         -1.48800        0.71490       -1.91730
H         -1.05960        2.07030       -2.74700
H         -1.40320        2.12690        0.30470
H         -2.56290        2.76220       -0.91360
H         -1.06000        4.60010       -0.01490
H         -1.00540        4.37220       -1.78920
H          1.13830        3.42220        0.17930
H          1.27240        4.67560       -1.03970
H          2.28250        2.51830       -2.02680
H          0.88940        2.99040       -2.80580
H          3.14290       -2.68260        0.39410
H          4.00730       -1.66160       -2.36360
H          3.70330       -3.43780       -1.86380
H          5.48570       -1.25950        1.68340
H          7.08160       -1.28230        0.96810
H          5.76680       -2.11400        0.12120
H          5.51040        1.73920        1.36810
H          6.81340        1.90960        0.09090
H          6.94070        0.88940        1.53930
H          4.58340        1.05080       -2.29000
H          5.64870        1.05960       -4.51940
H          7.88250        0.04550       -4.85350
H          9.08140       -0.95430       -2.94520
H          8.13350       -0.94510       -0.76230
