40

N         -1.45820       -0.07950       -0.03190
C         -0.78920        1.08780       -0.27450
N          0.57320        1.12120       -0.23290
C          1.29980        0.01320        0.08370
O          2.65840        0.02870        0.06770
C          3.42380        1.08880       -0.37970
C          0.62970       -1.17000        0.39980
C         -0.76590       -1.19540        0.31760
Au        -3.47560       -0.20170       -0.28210
Br        -3.77600        0.46080        2.20370
C         -3.22630       -0.75170       -2.34550
C         -2.03330       -0.87670       -2.93090
N         -5.49480       -0.23770       -0.53560
C         -6.26910        0.90130       -0.46210
N         -5.66270        2.20710       -0.39370
C         -4.34970        2.48380       -0.95380
C         -6.34700        3.34680        0.18920
C         -7.67470        0.76950       -0.55640
C         -8.25850       -0.49020       -0.65890
C         -7.45310       -1.61980       -0.71220
C         -6.06390       -1.46940       -0.68630
H         -1.32700        1.97990       -0.56180
H          4.50190        0.82880       -0.30540
H          3.23170        1.99010        0.23710
H          3.19750        1.30700       -1.44690
H          1.17840       -2.06360        0.67030
H         -1.30120       -2.10970        0.52550
H         -4.11810       -0.92520       -2.93900
H         -1.11160       -0.70260       -2.39620
H         -1.96590       -1.14860       -3.97810
H         -3.92110        1.62480       -1.49360
H         -3.65930        2.81560       -0.15310
H         -4.43300        3.30490       -1.70360
H         -7.33760        3.09490        0.60810
H         -6.46910        4.15040       -0.56930
H         -5.73380        3.73400        1.02810
H         -8.33510        1.62360       -0.57180
H         -9.33770       -0.58790       -0.70080
H         -7.90910       -2.60190       -0.76040
H         -5.44170       -2.35670       -0.69500
