49

O         -0.32800       -1.08200        0.00300
C         -0.79290       -0.15770       -0.79940
N         -0.22890        1.03790       -0.53310
C          0.62660        0.78730        0.48100
C          0.54040       -0.54600        0.81930
Au        -0.91570       -3.04590        0.01600
Br        -2.31500       -2.61300        2.15210
C          0.24580       -3.40530       -1.75710
C          1.26930       -2.61380       -2.07800
P         -1.62100       -5.40260        0.03160
C         -0.54790       -6.66990        0.89240
C         -0.49880       -6.68100        2.30630
C          0.35560       -7.54580        3.00410
C          1.24310       -8.36830        2.31540
C          1.25290       -8.35310        0.92970
C          0.36000       -7.54320        0.22930
C         -3.16420       -5.62940        0.99610
C         -4.18090       -4.66640        0.88920
C         -5.39070       -4.81520        1.57670
C         -5.62340       -5.95350        2.34990
C         -4.65710       -6.95430        2.41400
C         -3.44730       -6.80520        1.73410
C         -1.53390       -6.10100       -1.67660
C         -2.76920       -6.44920       -2.27790
C         -2.81020       -6.90680       -3.59810
C         -1.63780       -6.98570       -4.34840
C         -0.43900       -6.66220       -3.75310
O          0.60870       -6.72390       -4.39470
N         -0.40210       -6.25370       -2.44110
H         -1.56560       -0.31880       -1.53920
H          1.27040        1.52650        0.93830
H          1.10190       -1.07470        1.57790
H          0.12960       -4.16220       -2.43100
H          1.58910       -1.81110       -1.42980
H          1.86960       -2.84210       -2.95690
H         -1.14200       -6.03090        2.88180
H          0.34750       -7.56370        4.08580
H          1.93040       -9.01280        2.84900
H          1.96290       -8.96770        0.38580
H          0.46940       -7.63400       -0.81780
H         -4.03320       -3.78470        0.27920
H         -6.15120       -4.04980        1.50510
H         -6.55850       -6.06990        2.88090
H         -4.84710       -7.85420        2.98600
H         -2.75840       -7.63150        1.79060
H         -3.69300       -6.36820       -1.71840
H         -3.75600       -7.17610       -4.04970
H         -1.67370       -7.30520       -5.38260
H          0.53370       -6.03300       -2.04420
