49

P          1.00600        0.09930       -0.01040
C          0.04890       -1.43460       -0.00290
C         -1.34850       -1.48870        0.14170
C         -1.98640       -2.73250        0.27010
C         -1.24050       -3.91560        0.25620
C          0.14670       -3.86390        0.11490
C          0.78380       -2.62830       -0.01180
C          0.36050        0.64610        1.57610
C          0.70060       -0.02860        2.76410
C          0.19910        0.41970        3.99020
C         -0.65380        1.53020        4.03340
C         -1.01630        2.18400        2.85050
C         -0.51420        1.74140        1.62450
C          0.48270        0.74920       -1.62370
C         -0.42880        0.10850       -2.49270
C         -0.91230        0.77420       -3.62500
C         -0.48460        2.07000       -3.92070
C          0.43040        2.70630       -3.08040
C          0.90190        2.05090       -1.93600
Au         3.46600        0.09930       -0.01040
Br         3.46600       -1.20780       -2.24640
C          3.46600        1.18430        1.84570
C          2.68640        2.15750        2.31550
N          5.56600        0.09930       -0.01040
C          6.43110        0.69070        0.84790
O          7.68170        0.47660        0.50400
C          7.67240       -0.25840       -0.57930
C          6.36380       -0.49930       -0.91930
H         -1.93180       -0.58100        0.18750
H         -3.05930       -2.78040        0.39820
H         -1.73060       -4.87490        0.36940
H          0.73030       -4.77750        0.11830
H          1.86650       -2.60970       -0.08570
H          1.36290       -0.88280        2.73990
H          0.47570       -0.08190        4.90780
H         -1.03570        1.88350        4.98440
H         -1.67610        3.03990        2.88710
H         -0.79470        2.25810        0.71710
H         -0.82290       -0.87430       -2.30400
H         -1.64230        0.29230       -4.26440
H         -0.87700        2.58760       -4.78340
H          0.75330        3.71570       -3.29700
H          1.58760        2.57640       -1.27980
H          4.29580        0.94870        2.49170
H          1.87580        2.58650        1.75830
H          2.90940        2.57480        3.29640
H          6.17590        1.30040        1.69430
H          8.55190       -0.60510       -1.10600
H          6.05320       -1.08040       -1.76860
