78

P          1.09140       -0.00120       -0.04060
C          0.17640       -1.03510       -1.23280
C         -0.16810       -0.51730       -2.49800
C         -0.66750       -1.35160       -3.50180
C         -0.81400       -2.71880       -3.26900
C         -0.45800       -3.25510       -2.03120
C          0.04390       -2.42440       -1.02330
C          0.66060       -0.80370        1.52600
C          1.63970       -1.27610        2.40650
C          1.26540       -1.95550        3.57670
C         -0.08670       -2.17930        3.86120
C         -1.06820       -1.71740        2.98490
C         -0.69880       -1.03470        1.82530
C          0.52750        1.66010       -0.47780
C         -0.85280        1.94010       -0.43600
C         -1.34200        3.17170       -0.87410
C         -0.46480        4.13900       -1.36130
C          0.91250        3.87530       -1.40210
C          1.40820        2.63860       -0.95890
Au         3.55140       -0.00120       -0.04060
Br         3.55140        1.81470        1.80610
C          3.55140       -1.50860       -1.57370
C          4.24780       -1.91120       -2.64220
P          6.01140       -0.00120       -0.04060
C          6.75010        1.68900        0.17400
C          6.50900        2.49150        1.31050
C          6.84560        3.84510        1.34670
C          7.43390        4.44560        0.24080
C          7.70230        3.68410       -0.89420
C          7.36110        2.32630       -0.93240
C          6.46660       -0.77520        1.55890
C          6.08080       -2.12020        1.71630
C          6.48000       -2.86210        2.83460
C          7.26820       -2.27230        3.82160
C          7.67040       -0.94730        3.68420
C          7.29080       -0.20850        2.56210
C          6.82070       -0.72790       -1.50740
C          8.32960       -0.72360       -1.61460
C          9.20080       -0.31150       -0.59150
C         10.58440       -0.32970       -0.79040
C         11.11700       -0.75560       -2.00890
C         10.26020       -1.16780       -3.03390
C          8.88020       -1.15120       -2.83910
H         -0.01350        0.52390       -2.74060
H         -0.91140       -0.94080       -4.47310
H         -1.17820       -3.36570       -4.05710
H         -0.54140       -4.32160       -1.86420
H          0.36530       -2.88370       -0.09840
H          2.68910       -1.12960        2.19110
H          2.02030       -2.32140        4.25860
H         -0.37500       -2.71660        4.75680
H         -2.11610       -1.90010        3.19890
H         -1.47850       -0.70430        1.15160
H         -1.55630        1.19660       -0.09160
H         -2.40860        3.36950       -0.84740
H         -0.84900        5.08670       -1.71640
H          1.58710        4.62060       -1.79470
H          2.46890        2.43160       -1.02680
H          2.64250       -2.08230       -1.47430
H          5.10590       -1.45960       -3.07120
H          3.86860       -2.75450       -3.21420
H          6.03330        2.09800        2.18760
H          6.61750        4.43400        2.22720
H          7.66480        5.50310        0.25920
H          8.14070        4.15800       -1.76270
H          7.53240        1.81260       -1.86250
H          5.49580       -2.61460        0.95020
H          6.19450       -3.90190        2.92840
H          7.58780       -2.84530        4.68260
H          8.30500       -0.49500        4.43620
H          7.70830        0.77450        2.50620
H          6.46350       -0.10750       -2.35570
H          6.53000       -1.79280       -1.56630
H          8.83310        0.02680        0.35950
H         11.24490       -0.00980        0.00400
H         12.18640       -0.76390       -2.16350
H         10.66930       -1.48790       -3.98590
H          8.22960       -1.46180       -3.65110
