54

P          0.99490       -0.08110        0.05830
F         -0.64990        0.14900        0.26660
F          0.94840        0.86710       -1.32010
F          0.76470       -1.74110        0.11690
Cu         3.45490       -0.08110        0.05830
Br         2.99180       -0.03100        2.51000
C          3.03200       -1.75580       -1.16680
C          2.45410       -1.59120       -2.37600
P          5.91490       -0.08110        0.05830
C          6.67470        1.60170       -0.03260
C          6.43410        2.62850        0.94250
C          5.62440        2.45800        2.19700
C          6.96850        3.91590        0.75150
C          7.71150        4.22430       -0.38060
C          7.93960        3.25160       -1.34180
C          7.43170        1.96450       -1.17480
C          6.40010       -0.64240        1.75010
C          7.52270       -0.24750        2.57740
C          8.62770        0.74260        2.25280
C          7.69840       -0.86780        3.82460
C          6.84040       -1.85570        4.27900
C          5.78630       -2.26720        3.47870
C          5.58150       -1.68170        2.23200
C          6.47240       -0.85890       -1.53230
C          7.80770       -1.30470       -1.83070
C          9.01070       -1.03580       -0.98260
C          8.06270       -2.01360       -3.02630
C          7.04320       -2.26820       -3.93750
C          5.77960       -1.74560       -3.70420
C          5.53260       -1.02830       -2.53480
H          3.25630       -2.75630       -0.82490
H          2.22920       -0.59320       -2.74840
H          2.22570       -2.43050       -3.02220
H          5.21330        1.45670        2.31470
H          4.77190        3.16860        2.19710
H          6.26430        2.66450        3.08190
H          6.79270        4.69640        1.48290
H          8.10000        5.22510       -0.51900
H          8.50180        3.49870       -2.23330
H          7.62750        1.28380       -1.98160
H          8.61860        1.22000        1.27550
H          9.60760        0.21650        2.29770
H          8.63620        1.55090        3.01450
H          8.53700       -0.59490        4.46220
H          7.00110       -2.31990        5.24130
H          5.12000       -3.05220        3.82150
H          4.75350       -2.04080        1.63360
H          8.76030       -0.45220       -0.09680
H          9.73010       -0.43110       -1.58610
H          9.51360       -1.97590       -0.68290
H          9.06070       -2.37420       -3.25880
H          7.23840       -2.83190       -4.84320
H          4.98900       -1.89000       -4.43100
H          4.59910       -0.56210       -2.40400
