22

P          1.07830       -0.05590        0.02740
F         -0.59030        0.06900        0.07270
F          1.07360        0.47210       -1.56120
F          0.95370       -1.67090        0.44620
Cu         3.53830       -0.05590        0.02740
Br         3.35190       -2.37950       -0.90490
C          3.32930        1.77840        0.93840
C          3.70810        1.89590        2.21410
N          5.63830       -0.05590        0.02740
C          6.44740        1.06660        0.22240
Cl         5.91130        2.73370        0.33620
C          7.84580        0.97050        0.18560
C          8.46260       -0.24420       -0.03440
C          7.67820       -1.36280       -0.23490
C          6.28830       -1.24660       -0.22070
H          2.89990        2.62390        0.40960
H          4.14120        1.03850        2.72310
H          3.61890        2.83900        2.74040
H          8.46270        1.85490        0.30260
H          9.54180       -0.31790       -0.06320
H          8.14520       -2.32370       -0.41420
H          5.77110       -2.16260       -0.36910
