70

P          1.05340        0.01240       -0.08360
C          0.20880       -0.56190        1.56370
C         -1.33450       -0.54450        1.60470
C          0.65920       -2.00410        1.88490
C          0.69440        0.24750        2.79320
C          0.62450        1.94810       -0.36800
C          1.11650        3.04330        0.62700
C          1.22030        2.50320       -1.69220
C         -0.90290        2.15900       -0.44050
C          0.33010       -1.29280       -1.32080
C          0.20050       -1.31130       -2.94120
C          1.49220       -1.38200       -3.76640
C         -0.61140       -2.57620       -3.30200
C         -0.58860       -0.13710       -3.53610
Cu         3.51340        0.01240       -0.08360
Br         3.51340        1.75940        1.82860
C          3.51340       -1.43770       -1.67090
C          3.29450       -2.74160       -1.48330
P          5.97340        0.01240       -0.08360
C          7.36070       -0.54750       -1.12500
C          6.54750        1.64800        0.48680
C          6.29730       -1.31990        1.10090
C          5.93530       -2.64760        0.83960
C          6.26130       -3.65850        1.74950
C          6.96420       -3.35020        2.91990
C          7.33650       -2.03930        3.17760
C          7.00410       -1.02250        2.28070
H         -1.79200       -1.18200        0.83210
H         -1.76130        0.45640        1.56820
H         -1.68070       -0.93310        2.59050
H          0.32430       -2.73390        1.12780
H          0.24410       -2.33980        2.86310
H          1.77170       -2.06310        1.98100
H          0.36910        1.28880        2.77260
H          1.78660        0.15980        2.92980
H          0.26460       -0.14020        3.74230
H          2.17390        3.31290        0.46110
H          0.87880        2.90080        1.68140
H          0.64720        4.02680        0.39660
H          2.32020        2.37680       -1.74510
H          1.00730        3.59520       -1.80370
H          0.77700        2.14160       -2.58660
H         -1.35590        2.13650        0.55820
H         -1.39370        1.44350       -1.12480
H         -1.15290        3.18520       -0.79520
H         -0.73100       -1.30800       -1.02140
H          0.75000       -2.26840       -1.00200
H          2.03240       -2.32890       -3.60750
H          2.10310       -0.47310       -3.60500
H          1.28000       -1.39580       -4.85670
H         -0.10490       -3.49520       -2.94220
H         -0.72310       -2.66970       -4.40780
H         -1.63300       -2.53040       -2.87050
H          0.03410        0.73150       -3.63220
H         -1.53380        0.07330       -3.00630
H         -0.81770       -0.32370       -4.60860
H          3.86030       -1.08980       -2.63430
H          3.01920       -3.14040       -0.51670
H          3.42150       -3.42870       -2.31730
H          7.35350        0.07530       -2.04710
H          7.16980       -1.59170       -1.46030
H          8.34410       -0.47220       -0.62850
H          6.28210        2.40310       -0.28430
H          7.65120        1.63860        0.59530
H          6.12240        1.93690        1.45930
H          5.42220       -2.89810       -0.06530
H          5.97610       -4.67760        1.53640
H          7.22160       -4.14090        3.60740
H          7.89180       -1.80380        4.07980
H          7.33130       -0.01100        2.50250
