111

P          1.06700       -0.06450        0.03670
C          0.77440        0.88550       -1.58130
C         -0.46200        1.42780       -2.09450
C         -1.78840        1.39240       -1.41300
C         -0.53470        1.99430       -3.39250
C          0.56000        2.01430       -4.24390
C          0.49000        2.53170       -5.65530
C          1.74210        1.46250       -3.81360
C          1.87950        0.89220       -2.54320
C          3.15270        0.07060       -2.42280
C          0.65420       -1.90340       -0.28140
C          0.51250       -2.54840       -1.59130
C          0.64630       -2.00100       -2.98750
C          0.20220       -3.90700       -1.69120
C         -0.03040       -4.69350       -0.58790
C         -0.42190       -6.14120       -0.78790
C          0.10240       -4.13880        0.67280
C          0.43000       -2.78240        0.85960
C          0.55640       -2.36980        2.32460
C          0.28680        0.80130        1.59050
C         -1.03640        0.36030        2.04070
C         -1.97400       -0.62170        1.35570
C         -1.56320        0.75500        3.29440
C         -0.86190        1.56880        4.16680
C         -1.39990        1.91820        5.53270
C          0.36890        2.03490        3.77650
C          0.96300        1.67630        2.54370
C          2.31120        2.28420        2.39420
Cu         3.52700       -0.06450        0.03670
Br         3.52700        2.49850       -0.33650
C          3.52700       -2.19210        0.34650
C          3.30590       -3.07540        1.33190
P          5.98700       -0.06450        0.03670
C          6.81170        1.73130       -0.24610
C          6.34550        2.70330        0.89150
C          8.33700        2.07480       -0.28410
C          6.35720        2.25530       -1.65160
C          6.49630       -0.59270        1.86950
C          5.98520       -1.97980        2.18840
C          8.01320       -0.67470        2.21320
C          5.89710        0.33040        2.96880
C          6.48150       -1.17500       -1.41780
C          7.99460       -1.53890       -1.84740
C          8.72570       -2.31550       -0.75430
C          7.94840       -2.44080       -3.09740
C          8.90700       -0.37190       -2.22520
H         -1.71830        0.93780       -0.44790
H         -2.50080        0.80100       -2.03950
H         -2.19700        2.41470       -1.28790
H         -1.47740        2.38010       -3.76760
H         -0.51310        2.92670       -5.91440
H          0.72120        1.70100       -6.36160
H          1.24630        3.32880       -5.80740
H          2.56060        1.42230       -4.52620
H          3.63790       -0.10590       -3.40700
H          2.93990       -0.94520       -2.04310
H          3.95250        0.53300       -1.87760
H          0.67160       -0.95920       -3.10380
H         -0.24940       -2.25110       -3.59350
H          1.54030       -2.45230       -3.47780
H          0.08960       -4.37360       -2.67300
H         -0.46480       -6.41680       -1.87330
H         -1.43690       -6.31950       -0.37310
H          0.30970       -6.81130       -0.30220
H         -0.08570       -4.79520        1.51530
H          0.58590       -3.25640        2.99650
H         -0.26130       -1.80560        2.73920
H          1.42490       -1.72510        2.51170
H         -1.60020       -1.03080        0.40810
H         -2.95280       -0.13550        1.16930
H         -2.20320       -1.48770        2.01530
H         -2.52380        0.37760        3.62640
H         -2.36940        1.41840        5.73780
H         -1.52830        3.01300        5.63460
H         -0.67850        1.57140        6.30690
H          0.88770        2.67880        4.48650
H          2.68720        2.80220        3.30760
H          2.19530        3.12570        1.69000
H          3.05850        1.51560        2.15050
H          3.79980       -2.67490       -0.58550
H          3.10030       -2.82310        2.35580
H          3.40270       -4.13640        1.12070
H          7.04810        2.67600        1.74400
H          5.36050        2.52860        1.33860
H          6.39950        3.76790        0.56790
H          8.93530        1.66210        0.53380
H          8.48000        3.17990       -0.19600
H          8.81470        1.99890       -1.27150
H          5.32970        2.13040       -1.96260
H          6.87450        1.71130       -2.45740
H          6.58550        3.33730       -1.77990
H          6.22750       -2.70240        1.37940
H          4.94040       -1.84020        2.39000
H          6.37390       -2.37920        3.15190
H          8.48940       -1.61830        1.91460
H          8.15780       -0.77460        3.31310
H          8.59140        0.21210        1.94280
H          4.80690        0.43400        2.85620
H          6.36810        1.30900        3.06150
H          6.07030       -0.10730        3.97950
H          6.01920       -0.70190       -2.30940
H          5.96170       -2.13780       -1.25190
H          8.13980       -3.17620       -0.37510
H          8.95450       -1.59860        0.02250
H          9.72780       -2.65920       -1.09080
H          7.38440       -3.37360       -2.90230
H          8.98400       -2.73050       -3.39830
H          7.49760       -1.89790       -3.95510
H          9.25680        0.08800       -1.30390
H          8.45260        0.31770       -2.96200
H          9.87160       -0.71320       -2.65770
