45

P          1.03020       -0.09350       -0.01870
Cl        -0.64020        1.11870       -0.21840
Cl         0.92990       -0.54810       -2.04430
Cl        -0.06760       -1.33410        1.23160
Cu         3.49020       -0.09350       -0.01870
Br         3.39480        1.51130       -1.91680
C          3.49040       -1.05000        1.82740
C          2.97410       -2.25990        2.01420
P          5.95020       -0.09350       -0.01870
C          6.77650        1.06550       -1.13990
C          7.57180        2.13490       -0.68270
C          7.94760        3.16190       -1.54450
C          7.53620        3.15330       -2.88580
Cl         7.93090        4.49260       -3.95320
C          6.77410        2.09090       -3.36820
C          6.39980        1.05540       -2.50830
C          6.38340        0.19670        1.70500
C          7.15360       -0.72130        2.43720
C          7.48500       -0.45270        3.76840
C          7.05500        0.72640        4.38340
Cl         7.47610        1.05690        6.04870
C          6.29520        1.65040        3.65450
C          5.96410        1.38640        2.32230
C          6.38250       -1.76860       -0.57930
C          7.17100       -2.00090       -1.72570
C          7.53260       -3.29900       -2.09810
C          7.13100       -4.38970       -1.32440
Cl         7.59940       -6.01440       -1.78030
C          6.36000       -4.17370       -0.18300
C          5.98130       -2.87910        0.18040
H          3.92420       -0.53040        2.67470
H          2.52910       -2.80050        1.18920
H          3.00200       -2.70580        3.00450
H          7.83270        2.18710        0.35980
H          8.52530        3.99400       -1.17140
H          6.42600        2.08600       -4.39630
H          5.75410        0.27580       -2.89340
H          7.50940       -1.63560        1.98540
H          8.08270       -1.16780        4.32270
H          5.96570        2.56390        4.12410
H          5.37500        2.10830        1.77410
H          7.53220       -1.19670       -2.34210
H          8.13330       -3.45490       -2.98420
H          6.05290       -5.01260        0.43250
H          5.41340       -2.74540        1.08860
