99

P          0.91800        0.00360        0.05710
C          0.07070        1.47630       -0.94980
C         -1.47610        1.53650       -1.03220
C          0.52730        2.83820       -0.36640
C          0.53280        1.55450       -2.42680
C          0.33110       -1.67760       -0.91860
C          0.88670       -1.80270       -2.36710
C          0.68060       -3.10890       -0.33410
C         -1.22170       -1.81300       -0.93160
C          0.11200        0.37610        1.77480
C         -0.07550       -0.52540        3.11400
C          1.19040       -0.84270        3.90870
C         -0.97900        0.25460        4.09910
C         -0.76370       -1.87730        2.88300
Cu         3.37800        0.00360        0.05710
Br         3.75530        0.30550       -2.39240
C          3.39100       -0.21220        2.08770
C          4.15310       -1.01200        2.83180
C          5.52800        0.00360        0.05710
N          6.32710       -1.08280        0.04140
C          6.15750       -2.59930        0.08620
C          4.90560       -3.27950        0.16020
C          3.65930       -2.62000       -0.09800
C          4.74020       -4.68690        0.29450
C          5.81630       -5.50240        0.32510
C          5.66550       -7.01160        0.43010
C          7.06980       -4.96220        0.16190
C          7.27870       -3.54500        0.04310
C          8.72130       -3.26320       -0.21350
C          7.67810       -0.57360        0.02010
C          7.59340        0.82120       -0.46910
N          6.28680        1.26290       -0.12490
C          6.15040        2.71720        0.23690
C          7.04760        3.72370       -0.32210
C          8.08230        3.50660       -1.40460
C          7.04140        5.06120        0.13770
C          6.14960        5.48730        1.09840
C          6.16680        6.91800        1.59630
C          5.25090        4.59610        1.62010
C          5.23910        3.24600        1.21480
C          4.27470        2.42330        1.91020
H         -1.99130        1.49900       -0.06110
H         -1.89590        0.83650       -1.75610
H         -1.79540        2.47980       -1.52600
H          0.20670        2.99410        0.67600
H          0.07160        3.67660       -0.95050
H          1.62680        2.97260       -0.45520
H          0.08350        0.79640       -3.06510
H          1.61490        1.58400       -2.51120
H          0.19580        2.48570       -2.92800
H          1.99040       -1.80920       -2.34890
H          0.56170       -1.09330       -3.11290
H          0.58420       -2.76850       -2.83290
H          1.51840       -3.63820       -0.75260
H         -0.00440       -3.89510       -0.73160
H          0.67070       -3.27220        0.72550
H         -1.80940       -1.05310       -1.39220
H         -1.60850       -1.97060        0.09520
H         -1.54550       -2.69080       -1.53990
H         -0.94460        0.53000        1.49940
H          0.51110        1.35370        2.10470
H          1.69680        0.08660        4.24490
H          1.79300       -1.54960        3.31930
H          0.98000       -1.39450        4.84740
H         -0.53330        1.23980        4.35020
H         -1.09930       -0.30920        5.05480
H         -1.99430        0.40940        3.68010
H         -0.10430       -2.51650        2.32750
H         -1.74690       -1.79100        2.38710
H         -0.90100       -2.42630        3.84300
H          2.75620        0.51560        2.55450
H          4.84230       -1.71770        2.40690
H          4.07200       -0.93260        3.91490
H          3.85050       -1.70500       -0.57300
H          2.97710       -2.66710        0.77530
H          3.34890       -3.11900       -1.02200
H          3.74610       -5.12350        0.34300
H          4.60880       -7.31260        0.50810
H          6.20720       -7.36810        1.32890
H          6.10390       -7.49300       -0.47300
H          7.89850       -5.65260        0.13400
H          9.38160       -4.15910       -0.24280
H          9.14830       -2.61300        0.55710
H          8.80120       -2.88160       -1.26720
H          8.35310       -0.98490       -0.73210
H          8.07470       -0.63460        1.05360
H          7.61470        0.76970       -1.58130
H          8.43430        1.38790       -0.01660
H          7.77840        2.75040       -2.14160
H          9.09380        3.36590       -0.96700
H          8.13680        4.40550       -2.05620
H          7.74210        5.78300       -0.27170
H          6.95960        7.52020        1.10310
H          6.35680        6.93120        2.69090
H          5.18510        7.39600        1.39620
H          4.56240        4.95340        2.37500
H          3.64970        2.96680        2.65240
H          4.87250        1.67880        2.47090
H          3.59530        2.04580        1.12320
