50

P          1.05310        0.02690        0.08030
C          0.27150       -1.41660        0.96850
C         -1.25630       -1.58000        0.98780
C          0.88150       -2.70520        0.38030
C          0.68350        1.57150        1.03600
C          1.24780        2.76450        0.26130
C         -0.82480        1.81140        1.21540
C          0.30470       -0.17960       -1.57340
Cu         3.51310        0.02690        0.08030
Br         3.51310        0.08350        2.66970
C          3.51310       -0.02000       -2.06920
C          3.05870       -1.00270       -2.84200
P          5.97310        0.02690        0.08030
O          6.85690        1.46810        0.47480
C          8.26420        1.32700        0.42250
C          8.65130       -0.11840        0.15970
C         10.17940       -0.28990        0.16520
C          7.94080       -0.94860        1.29600
O          6.56740       -0.59960        1.53750
O          6.68590       -0.10820       -1.44820
C          8.05320       -0.47220       -1.25470
H          0.62770       -1.35950        2.01940
H         -1.67760       -1.67120       -0.03050
H         -1.78390       -0.79710        1.53970
H         -1.50050       -2.51370        1.54100
H          0.54030       -2.87980       -0.65900
H          0.58600       -3.58970        0.98180
H          1.99210       -2.65040        0.38370
H          1.15420        1.54130        2.03780
H          0.76830        2.84250       -0.74010
H          2.34400        2.66100        0.13410
H          1.04270        3.70980        0.81210
H         -1.36460        1.74720        0.24400
H         -1.01820        2.81460        1.65050
H         -1.25170        1.11610        1.94780
H         -0.79870       -0.11150       -1.46550
H          0.53490       -1.14710       -2.04450
H          0.61600        0.65510       -2.23140
H          3.90980        0.86870       -2.54930
H          2.63830       -1.90780       -2.42680
H          3.10340       -0.87880       -3.92230
H          8.67470        1.65710        1.40090
H          8.66510        1.99990       -0.36650
H         10.59510        0.01140        1.15050
H         10.64500        0.35940       -0.61040
H         10.45550       -1.34440       -0.03560
H          8.48010       -0.74240        2.24880
H          8.03260       -2.03880        1.09320
H          8.63160        0.09760       -2.01420
H          8.19180       -1.55190       -1.46580
