89

P          1.05050       -0.01080       -0.08560
C          0.20980        1.56270        0.81610
C         -1.18850        1.84600        1.28820
C         -2.42160        0.98720        1.17930
C         -1.51150        3.05080        1.99560
C         -0.58890        4.05420        2.21790
C         -0.91500        5.32370        2.98980
C          0.66600        3.88650        1.71610
C          1.06860        2.70230        1.06310
C          2.49740        2.82040        0.65580
C          0.45360        0.27630       -1.93180
C          0.70570        1.51540       -2.66080
C          1.60410        2.62940       -2.23970
C          0.13150        1.78200       -3.92380
C         -0.65390        0.87470       -4.58720
C         -1.25530        1.21700       -5.93390
C         -0.84070       -0.36300       -4.00750
C         -0.31180       -0.69390       -2.72740
C         -0.56800       -2.13310       -2.37930
C          0.69720       -1.64140        1.02560
C         -0.09040       -1.79440        2.25090
C         -0.75330       -0.74480        3.03180
C         -0.35900       -3.06030        2.85170
C          0.13050       -4.24420        2.35230
C         -0.15700       -5.58080        3.00130
C          0.88760       -4.18010        1.22110
C          1.15400       -2.95620        0.56910
C          1.93110       -3.22000       -0.63740
Cu         3.51050       -0.01080       -0.08560
Br         3.51050        0.05860        2.50340
C          3.51050       -0.06830       -2.23490
C          3.17330       -1.06560       -3.07510
C          5.66050       -0.01080       -0.08560
N          6.45550       -0.85510       -0.81010
C          6.13390       -2.01040       -1.60820
C          5.36860       -2.98470       -0.72190
C          7.73090       -0.53060       -0.52830
C          7.72760        0.48980        0.37620
N          6.45320        0.79320        0.67830
C          6.09940        1.92700        1.52030
C          6.68780        1.79340        2.92070
H         -2.26430        0.02930        0.65970
H         -3.24230        1.56080        0.69260
H         -2.81590        0.81380        2.21280
H         -2.50390        3.21380        2.39490
H         -1.92640        5.30960        3.45090
H         -0.84680        6.21420        2.32670
H         -0.18100        5.47320        3.81850
H          1.37350        4.70020        1.86070
H          2.62010        3.69870       -0.01300
H          2.87920        1.93660        0.15840
H          3.10340        3.00240        1.55860
H          2.55400        2.24870       -1.86170
H          1.05920        3.43090       -1.70630
H          2.03070        3.12940       -3.14300
H          0.30710        2.73160       -4.42280
H         -1.01620        2.25930       -6.24360
H         -2.36250        1.13100       -5.89210
H         -0.87130        0.53520       -6.72080
H         -1.41120       -1.07970       -4.59310
H         -1.19570       -2.66570       -3.13620
H         -1.04250       -2.28470       -1.39710
H          0.38490       -2.64820       -2.52430
H         -0.39260        0.21800        2.75280
H         -0.49980       -0.82840        4.10510
H         -1.84810       -0.92520        2.93460
H         -0.97710       -3.13220        3.74230
H         -0.80710       -5.47840        3.89690
H          0.79250       -6.06810        3.31690
H         -0.67400       -6.25550        2.28300
H          1.26110       -5.12150        0.82150
H          1.40030       -3.94470       -1.29940
H          2.86030       -3.74170       -0.37220
H          2.08690       -2.25480       -1.06170
H          4.34770        0.42560       -2.72150
H          2.73810       -2.00870       -2.85480
H          3.55550       -1.03790       -4.09460
H          7.05150       -2.54120       -1.94690
H          5.56310       -1.75550       -2.51690
H          5.97360       -3.28520        0.16220
H          5.07910       -3.90000       -1.28060
H          4.48000       -2.44980       -0.34220
H          8.61070       -1.01870       -0.92850
H          8.61660        0.96180        0.79490
H          5.01920        2.05830        1.55690
H          6.51310        2.85890        1.06540
H          6.31860        0.86560        3.39710
H          6.39570        2.66800        3.53800
H          7.79440        1.75810        2.87410
