49

P          1.07770       -0.04160        0.04720
C          0.28640       -1.19300        1.28230
C         -1.24200       -1.34170        1.32730
C          0.89840       -2.59080        1.07010
C          0.71190        1.69530        0.53870
C          1.28350        2.64310       -0.51320
C         -0.79720        1.99190        0.65310
C          0.42190       -0.72060       -1.51500
Cu         3.53770       -0.04160        0.04720
Br         3.53770        0.70700        2.52670
C          3.53770       -0.66310       -2.01100
C          4.09270        0.00950       -3.01520
N          5.63770       -0.04160        0.04720
C          6.29190        1.06360        0.51720
C          5.55080        2.34250        0.74480
C          7.68760        1.08110        0.59480
C          8.41240       -0.04530        0.24010
C          7.75250       -1.17830       -0.22800
C          6.33780       -1.14850       -0.35640
C          5.64010       -2.45530       -0.65060
H          0.63050       -0.85370        2.28390
H         -1.65220       -1.69560        0.36350
H         -1.77020       -0.43850        1.64520
H         -1.49770       -2.09590        2.10540
H          0.56400       -3.04150        0.11380
H          0.59660       -3.28090        1.88610
H          2.00910       -2.53730        1.06800
H          1.17670        1.93920        1.52670
H          0.80850        2.45100       -1.50120
H          2.37810        2.50750       -0.60800
H          1.08560        3.70280       -0.23570
H         -1.33290        1.67750       -0.26960
H         -0.98240        3.07540        0.80890
H         -1.23090        1.51590        1.54220
H         -0.68810       -0.66900       -1.47400
H          0.72750       -1.76530       -1.69590
H          0.74220       -0.08120       -2.36090
H          3.06630       -1.61650       -2.22520
H          4.58900        0.95730       -2.85980
H          4.03980       -0.41400       -4.01670
H          4.47660        2.23640        0.49160
H          5.94050        3.10910        0.02840
H          5.68080        2.72400        1.77460
H          8.21310        1.97330        0.92660
H          9.49500       -0.04920        0.31610
H          8.31330       -2.06350       -0.46770
H          6.35230       -3.30750       -0.65940
H          5.14170       -2.45670       -1.62230
H          4.91020       -2.66160        0.16990
