96

P          1.05310        0.06970       -0.04810
C         -0.01870        0.21490        1.41200
C         -1.40570        0.41800        1.38170
C         -2.14420        0.38670        2.58130
C         -1.50130        0.13410        3.81090
C         -2.27510        0.04680        5.09820
C         -0.11600       -0.05990        3.83410
C          0.61510       -0.01380        2.64770
C          0.69160        1.77290       -0.61810
C          0.45730        2.87520        0.22970
C          0.12620        4.13140       -0.30510
C          0.01290        4.31140       -1.68950
C         -0.35670        5.64650       -2.27400
C          0.25020        3.22480       -2.53600
C          0.58870        1.97720       -2.00440
C          0.30640       -1.47570       -0.67770
C          0.23260       -1.72000       -2.05920
C         -0.44140       -2.84370       -2.55250
C         -1.05210       -3.75090       -1.67120
C         -1.84040       -4.92290       -2.17450
C         -0.93030       -3.53870       -0.29610
C         -0.27050       -2.42310        0.19980
Cu         3.51310        0.06970       -0.04810
Br         3.51310        2.41140        1.05860
C          3.51310       -1.87410       -0.96680
C          2.94630       -2.91940       -0.36700
P          5.97310        0.06970       -0.04810
C          6.97280       -1.54170       -0.42020
C          6.72990       -2.05220       -1.86430
C          8.50750       -1.63430       -0.24420
C          6.40370       -2.57030        0.59280
C          6.44340        1.38650       -1.36880
C          5.92430        2.78450       -1.00510
C          7.97350        1.55160       -1.53250
C          5.86890        1.04690       -2.75850
C          6.54390        0.65190        1.60650
C          5.68320        0.85940        2.68730
C          6.15420        1.37360        3.90970
C          7.53600        1.66320        4.11950
N          8.03930        2.24840        5.35760
C          7.16320        2.71690        6.44310
C          9.45990        2.49090        5.62070
C          8.39620        1.36670        3.03760
C          7.90870        0.88160        1.82500
H         -1.91580        0.57680        0.44350
H         -3.21230        0.53300        2.55200
H         -3.35990        0.22130        4.93550
H         -1.90040        0.80120        5.82250
H         -2.15120       -0.96370        5.54450
H          0.39550       -0.26920        4.76770
H          1.68260       -0.20170        2.69020
H          0.51270        2.77340        1.30520
H         -0.05470        4.96040        0.36990
H         -0.50670        6.40980       -1.48280
H         -1.29980        5.55360       -2.85310
H          0.44780        5.99910       -2.95450
H          0.16730        3.33980       -3.61190
H          0.74840        1.16240       -2.69350
H          0.66530       -1.02660       -2.76550
H         -0.51150       -2.99250       -3.62240
H         -1.87410       -4.95080       -3.28340
H         -2.88590       -4.82960       -1.80550
H         -1.41800       -5.87690       -1.79910
H         -1.37970       -4.24340        0.40490
H         -0.22710       -2.30300        1.26970
H          3.85400       -2.01870       -1.96640
H          2.55060       -2.82300        0.63710
H          2.90150       -3.87970       -0.87210
H          7.41610       -1.57600       -2.58750
H          5.75620       -1.83490       -2.25510
H          6.89420       -3.14860       -1.95470
H          9.08770       -1.04750       -0.96780
H          8.82170       -2.68790       -0.44640
H          8.84350       -1.42700        0.78360
H          5.30730       -2.57440        0.64460
H          6.75250       -2.33540        1.62220
H          6.72340       -3.60970        0.35790
H          6.27750        3.09540        0.00180
H          4.83010        2.82650       -1.09680
H          6.29170        3.54340       -1.73270
H          8.46810        1.89550       -0.61040
H          8.21590        2.33260       -2.28440
H          8.44120        0.64110       -1.92470
H          4.76670        0.93870       -2.71480
H          6.30250        0.13970       -3.19640
H          6.11530        1.85380       -3.48500
H          4.63270        0.63720        2.60190
H          5.40490        1.53150        4.66000
H          6.09980        2.55570        6.27660
H          7.32640        3.78610        6.61410
H          7.43530        2.15360        7.37030
H         10.15500        2.16830        4.83500
H          9.76920        1.95830        6.54150
H          9.63050        3.58070        5.76520
H          9.45970        1.50970        3.06420
H          8.63500        0.69460        1.06460
