70

P          1.03770        0.08850        0.02740
C          0.07710       -1.45580       -0.49210
C          0.74340       -2.67630       -0.83530
C          2.20250       -2.97800       -0.63230
C          0.01180       -3.76240       -1.35260
C         -1.36520       -3.69980       -1.48730
C         -2.04510       -2.58090       -1.04500
C         -1.34870       -1.46560       -0.54620
C          0.30620        0.31460        1.72100
C          0.01180       -0.67810        2.72090
C          0.24220       -2.16590        2.63550
C         -0.49720       -0.27160        3.97560
C         -0.73490        1.06190        4.26420
C         -0.48820        2.02700        3.30170
C          0.01660        1.66320        2.04670
C          0.39520        1.18210       -1.38000
C          0.63800        2.60540       -1.41380
C          1.57860        3.36250       -0.51280
C         -0.06080        3.42750       -2.32880
C         -0.99660        2.90120       -3.20580
C         -1.21060        1.53890       -3.23100
C         -0.51790        0.69770       -2.36420
Cu         3.49770        0.08850        0.02740
Br         3.44750       -0.43590       -2.40580
C          3.78280        0.65460        2.02170
C          3.05510        0.53070        3.11690
P          5.95770        0.08850        0.02740
N          7.24250        0.70930        1.10110
C          7.12830        0.40000        2.54620
C          8.60110        0.87260        0.63590
O          6.17310       -1.51860        0.54510
C          5.95390       -2.35100       -0.56670
O          6.39060        0.66200       -1.51350
C          5.89140        1.98720       -1.58760
H          2.71750       -2.19680       -0.04950
H          2.72150       -3.19160       -1.59200
H          2.28620       -3.91290       -0.01940
H          0.51110       -4.66860       -1.65460
H         -1.89580       -4.55340       -1.89830
H         -3.11530       -2.55550       -1.11770
H         -1.89700       -0.60300       -0.23110
H          0.64800       -2.51900        1.69320
H         -0.71430       -2.70290        2.85000
H          0.96980       -2.46120        3.42720
H         -0.69830       -0.99270        4.76280
H         -1.11060        1.36460        5.24050
H         -0.67530        3.07090        3.51930
H          0.17490        2.44800        1.35850
H          2.11440        2.72050        0.20860
H          1.01060        4.14700        0.04000
H          2.33430        3.88680       -1.13690
H          0.09410        4.50100       -2.34320
H         -1.55370        3.54890       -3.87210
H         -1.94630        1.12410       -3.91020
H         -0.78660       -0.32350       -2.49360
H          4.69610        1.18750        2.16530
H          2.19640       -0.05880        3.14770
H          3.40630        0.94740        4.05350
H          6.14380        0.03050        2.86820
H          7.34450        1.31770        3.14320
H          7.80490       -0.41890        2.83780
H          8.61290        1.28180       -0.39110
H          9.13760       -0.09090        0.71450
H          9.09950        1.62670        1.29000
H          6.36460       -3.35710       -0.34950
H          6.46460       -2.00450       -1.49540
H          4.87140       -2.46520       -0.73700
H          6.41100        2.53060       -2.40100
H          6.08160        2.59350       -0.66710
H          4.80350        1.99440       -1.81320
