93

P          0.96470        0.08470       -0.03980
C          0.13100       -0.92970       -1.28570
C         -1.25900       -1.13340       -1.41480
C         -1.72970       -2.06290       -2.36890
C         -0.83020       -2.77880       -3.18230
C         -1.29780       -3.83780       -4.14210
C          0.53810       -2.52870       -3.08350
C          1.00620       -1.60450       -2.16310
C          0.62610       -1.11230        1.32910
C         -0.12920       -2.31310        1.24100
C         -0.49830       -3.01810        2.39230
C         -0.11620       -2.56340        3.65860
C         -0.55410       -3.28080        4.90340
C          0.66860       -1.41170        3.75860
C          1.03190       -0.70040        2.61170
C         -0.07710        1.58030        0.02400
C         -0.35360        2.14500        1.28900
C         -1.15470        3.26720        1.42770
C         -1.75370        3.83470        0.30560
C         -2.70000        4.98470        0.47580
C         -1.49170        3.29100       -0.96610
C         -0.64640        2.17490       -1.10930
Cu         3.42470        0.08470       -0.03980
Br         3.42470       -2.50520       -0.01090
C          3.42470        2.23450       -0.06370
C          2.59420        2.87900        0.72410
P          5.88470        0.08470       -0.03980
C          6.96270        1.63670       -0.05120
C          7.20370        2.47540        1.11430
C          6.68060        2.23470        2.49320
C          7.95420        3.64930        1.01810
C          8.44930        4.08470       -0.20530
C          8.21010        3.32880       -1.34150
C          7.50460        2.11960       -1.26880
C          6.63890       -0.68500        1.44360
C          5.99700       -0.81170        2.71690
C          4.54920       -0.48520        2.98000
C          6.77230       -1.15620        3.84300
C          8.13710       -1.41450        3.72640
C          8.75520       -1.33010        2.48570
C          8.01910       -0.94640        1.36780
C          6.07200       -0.70420       -1.70300
C          6.77880       -1.91430       -2.04870
C          7.50310       -2.82880       -1.08960
C          6.85860       -2.29870       -3.40670
C          6.25990       -1.54510       -4.40780
C          5.55040       -0.39940       -4.07880
C          5.45480        0.00990       -2.74880
H         -1.94590       -0.62160       -0.77030
H         -2.79090       -2.24300       -2.44510
H         -2.39960       -3.95570       -4.11180
H         -0.83840       -4.80990       -3.85730
H         -0.98350       -3.58960       -5.17770
H          1.24550       -3.05130       -3.71520
H          2.07040       -1.44120       -2.10390
H         -0.49970       -2.72120        0.32060
H         -1.11210       -3.90590        2.29300
H         -1.18910       -4.16180        4.66850
H         -1.14910       -2.59140        5.54150
H          0.33410       -3.62310        5.47250
H          0.97260       -1.04390        4.73090
H          1.60380        0.20750        2.73940
H          0.06080        1.73330        2.19500
H         -1.32260        3.67240        2.41980
H         -2.78590        5.28870        1.54300
H         -3.70600        4.65820        0.13910
H         -2.37290        5.86210       -0.11650
H         -1.94920        3.72710       -1.84260
H         -0.45860        1.76680       -2.09290
H          4.26190        2.82770       -0.41720
H          2.00340        2.26570        1.35780
H          2.67110        3.94410        0.90620
H          5.78930        1.62470        2.44920
H          6.28750        3.18300        2.93410
H          7.48340        1.85900        3.16170
H          8.13660        4.27990        1.88740
H          8.99230        5.01720       -0.26270
H          8.56980        3.70120       -2.29450
H          7.34620        1.60080       -2.19280
H          4.01230       -0.19720        2.06470
H          4.47060        0.36240        3.69920
H          4.04240       -1.35690        3.43810
H          6.32300       -1.19020        4.82870
H          8.72380       -1.65680        4.60400
H          9.81780       -1.51880        2.39480
H          8.54880       -0.80700        0.43970
H          6.91020       -3.03230       -0.17810
H          8.52900       -2.46090       -0.89640
H          7.68510       -3.82400       -1.55680
H          7.40890       -3.18450       -3.70730
H          6.34980       -1.85280       -5.44290
H          5.08280        0.18270       -4.86110
H          4.90690        0.91770       -2.53460
