41

P          1.01730       -0.06890       -0.07040
C         -0.43510       -0.99670       -0.70090
C          0.82860       -0.68500        1.63400
C          0.29910        1.48940       -0.59370
C         -0.72260        2.10620        0.14490
C         -1.43270        3.18330       -0.39430
C         -1.13140        3.65010       -1.67080
C         -0.11160        3.05370       -2.41680
C          0.59590        1.96330       -1.87830
Cu         3.47730       -0.06890       -0.07040
Br         3.47730        2.07770        1.37880
C          3.47730       -1.85090       -1.27330
C          2.46430       -2.42080       -1.92240
N          5.57730       -0.06890       -0.07040
C          6.25690        0.65380        0.87920
C          7.63960        0.75640        0.90230
C          8.38990        0.16060       -0.11160
C          9.88010        0.32890       -0.16370
C          7.72250       -0.57490       -1.09020
C          6.32870       -0.70770       -1.03860
H         -1.39120       -0.68280       -0.25100
H         -0.27850       -2.08310       -0.50520
H         -0.49150       -0.87020       -1.80580
H         -0.24520       -0.72070        1.91890
H          1.37000       -0.03940        2.34920
H          1.23500       -1.71850        1.68290
H         -1.00640        1.71010        1.11700
H         -2.24140        3.63530        0.16700
H         -1.69810        4.46860       -2.10530
H          0.11090        3.39710       -3.41790
H          1.34800        1.47620       -2.48810
H          4.39270       -2.39250       -1.40670
H          1.48450       -2.00930       -1.96420
H          2.64830       -3.32420       -2.50010
H          5.75740        1.13440        1.69330
H          8.12520        1.32080        1.68640
H         10.25250        0.90400        0.71130
H         10.14990        0.89130       -1.08370
H         10.37680       -0.66140       -0.17620
H          8.27380       -1.02470       -1.90710
H          5.89880       -1.20780       -1.87310
