57

P          0.99820       -0.06930       -0.07210
C          0.26700        0.69560        1.59960
C         -1.25670        0.94720        1.76190
C          0.69690       -0.21320        2.78140
C          0.89350        2.06080        1.96140
C          0.61720        1.15160       -1.59410
C          1.25040        2.55770       -1.65830
C          1.10890        0.44980       -2.88050
C         -0.88520        1.46590       -1.83280
C          0.28510       -1.83740       -0.07400
C         -1.25440       -2.34050       -0.16220
C         -2.04080       -1.82810       -1.38060
C         -1.22490       -3.88110       -0.28560
C         -2.13990       -2.04310        1.06010
Cu         3.45820       -0.06930       -0.07210
Br         3.45820        2.49720        0.27590
C          3.45820       -2.19980       -0.36090
C          3.07720       -2.91130       -1.41980
C          5.60820       -0.06930       -0.07210
N          6.35050        1.04250        0.08110
C          7.61920        0.61100        0.03030
C          7.60400       -0.75520       -0.15890
O          6.35780       -1.14350       -0.22050
H         -1.75710        0.12770        2.27600
H         -1.77980        1.35180        0.89310
H         -1.46590        1.69200        2.56570
H          0.28700       -1.22980        2.68950
H          0.32770        0.19660        3.75210
H          1.80360       -0.28990        2.85200
H          0.66190        2.85220        1.23360
H          1.96050        1.95720        2.19100
H          0.51550        2.45600        2.93310
H          2.31690        2.51220       -1.91080
H          1.00480        3.19130       -0.77880
H          0.88530        3.16060       -2.51380
H          2.20730        0.31220       -2.84760
H          0.87290        1.06460       -3.77920
H          0.62330       -0.53360       -3.00440
H         -1.35610        1.98460       -0.99060
H         -1.43500        0.62440       -2.22530
H         -1.02430        2.17400       -2.67860
H          0.74780       -2.36250        0.78310
H          0.71220       -2.25900       -0.99780
H         -1.49990       -1.97890       -2.33790
H         -2.32030       -0.78640       -1.20800
H         -3.03570       -2.32450       -1.45860
H         -0.70470       -4.19700       -1.21380
H         -2.26080       -4.29370       -0.33760
H         -0.72830       -4.33750        0.59540
H         -2.58550       -1.04870        0.95810
H         -1.61870       -2.23310        2.01800
H         -3.06750       -2.65700        1.05910
H          3.84980       -2.74400        0.49280
H          2.67230       -2.46530       -2.31270
H          3.16190       -3.99950       -1.35410
H          8.49040        1.24280        0.12670
H          8.46680       -1.40070       -0.23990
