96

P          1.04770       -0.08690        0.01310
C          0.18740       -0.04590       -1.73080
C         -1.35360       -0.05820       -1.74690
C          0.63750        1.21550       -2.50860
C          0.64920       -1.21120       -2.64700
C          0.61400       -1.85670        0.87760
C          1.11040       -3.19170        0.24440
C          1.19620       -2.03800        2.31850
C         -0.91610       -2.03630        1.00750
C          0.35670        1.51810        0.86450
C          0.34190        1.99660        2.44120
C          1.67580        2.16470        3.18450
C         -0.31820        3.39360        2.50540
C         -0.49310        1.11260        3.37530
Cu         3.50770       -0.08690        0.01310
Br         3.50770       -2.32750       -1.28610
C          3.50770        1.77300        1.09160
C          3.20740        2.84700        0.35850
P          5.96770       -0.08690        0.01310
C          6.89990       -1.77870        0.23760
C          6.70710       -2.92950       -0.79690
C          8.41930       -1.71220        0.48530
C          6.26190       -2.33270        1.54430
C          6.37860        0.52040       -1.74750
C          5.82540        1.95310       -1.87730
C          7.90710        0.65020       -2.01200
C          5.77400       -0.31650       -2.89060
C          6.67550        0.93340        1.41420
C          5.94800        1.20440        2.56500
C          6.33310        2.21100        3.47110
C          7.55820        2.90110        3.31550
N          7.92180        4.04790        4.15980
C          6.90580        4.83690        4.84850
C          9.26180        4.57360        4.24070
C          8.41010        2.42910        2.30010
C          7.97630        1.47150        1.37400
H         -1.78730        0.79660       -1.20390
H         -1.78990       -0.99180       -1.39300
H         -1.71590       -0.00620       -2.80000
H          0.33160        2.15240       -2.01250
H          0.17700        1.22310       -3.52800
H          1.73830        1.22130       -2.67150
H          0.30340       -2.18940       -2.30900
H          1.74100       -1.19220       -2.80720
H          0.22420       -1.13100       -3.67130
H          2.16840       -3.39210        0.48730
H          0.88690       -3.36420       -0.80520
H          0.64250       -4.07100        0.74310
H          2.29880       -1.94100        2.35030
H          0.95120       -3.05530        2.71710
H          0.77180       -1.47080        3.11010
H         -1.36830       -2.30590        0.04630
H         -1.40670       -1.15470        1.46480
H         -1.17110       -2.92090        1.63610
H         -0.72530        1.47180        0.63470
H          0.73370        2.36190        0.26240
H          2.21320        3.05440        2.80170
H          2.22800        1.19740        3.19760
H          1.55530        2.43170        4.25580
H          0.24120        4.12100        1.87860
H         -0.31320        3.79340        3.54990
H         -1.36970        3.35780        2.16350
H          0.01040        0.19860        3.57780
H         -1.51750        0.92650        3.00790
H         -0.55420        1.55660        4.39940
H          3.81030        2.01110        2.06830
H          2.91800        2.73000       -0.67920
H          3.23420        3.84440        0.78540
H          7.12310       -2.72410       -1.79060
H          5.70320       -3.34490       -0.85520
H          7.25320       -3.84010       -0.46220
H          8.99990       -1.48370       -0.41610
H          8.78290       -2.71900        0.80090
H          8.68150       -1.03660        1.31270
H          5.15710       -2.43640        1.42760
H          6.44330       -1.66270        2.40880
H          6.64970       -3.33980        1.81580
H          6.25560        2.62240       -1.10020
H          4.72670        1.94330       -1.78540
H          6.07720        2.38970       -2.87040
H          8.39880        1.36400       -1.33990
H          8.11440        1.08530       -3.01080
H          8.41790       -0.32050       -2.00550
H          4.68600       -0.35250       -2.84770
H          6.21760       -1.31650       -2.96120
H          6.06470        0.16380       -3.86560
H          5.03920        0.65410        2.73540
H          5.64350        2.44250        4.26680
H          5.86550        4.51340        4.69160
H          6.94740        5.89040        4.48560
H          7.12230        4.85600        5.94730
H         10.03010        3.98060        3.71630
H          9.58070        4.61770        5.30070
H          9.29290        5.61140        3.82080
H          9.39890        2.81810        2.13730
H          8.67930        1.20430        0.62230
