67

P          1.08670        0.02830        0.04110
C          0.28840        0.17410       -1.57690
C         -1.08990        0.08350       -1.82880
C         -1.55720        0.16010       -3.16130
C         -3.01350        0.05430       -3.48670
C         -0.65170        0.32980       -4.21700
C          0.71380        0.43980       -3.96110
C          1.17350        0.37090       -2.65190
C          0.69100       -1.76120        0.15930
C          0.33700       -2.61030       -0.91510
C         -0.06620       -3.93640       -0.68270
C         -0.45720       -4.83540       -1.81300
C         -0.12500       -4.42390        0.62950
C          0.23770       -3.60670        1.69430
C          0.64920       -2.29570        1.46130
C          0.26000        1.35610        0.96830
C         -0.06450        2.58670        0.37460
C         -0.74380        3.57240        1.11980
C         -1.12440        4.88400        0.50460
C         -1.08230        3.32850        2.45970
C         -0.75180        2.11350        3.05040
C         -0.08560        1.13510        2.31460
Cu         3.54670        0.02830        0.04110
Br         3.54670       -1.92220       -1.66290
C          3.54670        1.64740        1.45570
C          4.50120        1.90840        2.35550
N          5.64670        0.02830        0.04110
C          6.34580        1.23100        0.09490
C          5.70990        2.56900       -0.19650
C          7.74170        1.26970        0.21350
C          8.46720        0.10000        0.23580
C          7.80510       -1.10230        0.10150
C          6.40110       -1.14180       -0.01150
C          5.83070       -2.52750        0.09260
H         -1.77860       -0.06040       -1.00840
H         -3.62760       -0.05350       -2.57120
H         -3.17840       -0.82950       -4.13900
H         -3.33570        0.96750       -4.03160
H         -0.99170        0.37880       -5.24460
H          1.41630        0.57180       -4.77530
H          2.23950        0.45500       -2.47960
H          0.35510       -2.26740       -1.93720
H         -0.36080       -4.31630       -2.79720
H         -1.51130       -5.15270       -1.69270
H          0.20180       -5.72520       -1.82530
H         -0.45360       -5.43720        0.82660
H          0.18390       -3.98280        2.71010
H          0.90930       -1.69740        2.31760
H          0.19080        2.77380       -0.65950
H         -0.79510        4.95550       -0.54610
H         -0.65650        5.71420        1.08390
H         -2.22970        5.00620        0.54280
H         -1.61040        4.07450        3.04300
H         -1.01750        1.92610        4.08530
H          0.14430        0.21410        2.81250
H          2.64600        2.23990        1.53570
H          5.40050        1.31370        2.43160
H          4.36410        2.72230        3.06110
H          4.65830        2.47610       -0.52550
H          6.22390        3.01490       -1.07530
H          5.83290        3.28300        0.64390
H          8.27180        2.21460        0.25130
H          9.54470        0.12530        0.33880
H          8.39030       -2.01450        0.13520
H          6.42980       -3.14540        0.79630
H          5.89260       -3.04480       -0.88870
H          4.82340       -2.51320        0.55400
