47

P          1.27500        0.00000        0.00000
N          0.22870       -1.41400       -0.26810
C         -1.20230       -1.19410       -0.16660
C         -1.47570        0.28570        0.02590
C         -3.00100        0.49300        0.04300
C         -0.83510        0.70470        1.40670
N          0.60870        0.36490        1.57650
N          0.63900        0.84940       -1.38830
C         -0.82140        1.07490       -1.18000
Cu         3.73500        0.00030       -0.00050
Br         3.73560       -1.80900        1.85280
C          3.73450        1.50230       -1.53880
C          3.21070        2.70930       -1.33900
N          5.83500        0.00060       -0.00090
C          6.49150        0.91910       -0.78500
C          7.87010        0.98480       -0.89090
C          8.68210        0.03650       -0.26800
N         10.11540        0.03140       -0.48190
C         10.84720        1.20650       -0.95820
C         10.92610       -1.16570       -0.31690
C          8.01770       -0.91980        0.53340
C          6.61550       -0.88170        0.70060
H          0.53370       -2.21430        0.33390
H         -1.61840       -1.78740        0.67930
H         -1.67070       -1.57400       -1.10050
H         -3.46580       -0.10640        0.85780
H         -3.44950        0.14840       -0.91710
H         -3.25670        1.55930        0.19200
H         -1.40280        0.21260        2.23050
H         -0.96990        1.79770        1.53850
H          0.71270       -0.49350        2.16590
H          0.80240        0.24990       -2.23090
H         -1.35360        0.80850       -2.12320
H         -0.99240        2.16010       -1.01910
H          4.14010        1.25000       -2.51440
H          2.77740        2.96780       -0.38030
H          3.20830        3.43690       -2.14530
H          6.00440        1.70220       -1.31240
H          8.26100        1.77290       -1.51360
H         10.24050        2.12670       -1.02560
H         11.28920        0.99930       -1.95530
H         11.66400        1.44050       -0.24660
H         10.34390       -2.05990       -0.04080
H         11.70680       -0.98410        0.44980
H         11.42080       -1.40450       -1.28100
H          8.55440       -1.70580        1.04170
H          6.20100       -1.66680        1.29700
