85

P          0.96170        0.07620        0.05230
C          0.04280        1.64040        0.05940
C         -1.35070        1.75050       -0.08750
C         -1.93500        3.02040       -0.21570
C         -1.14650        4.18070       -0.18640
C          0.23100        4.07260       -0.05120
C          0.82960        2.81570        0.06240
C          0.29530       -0.50170       -1.54930
C          0.23250        0.37210       -2.65440
C         -0.36590       -0.03500       -3.85310
C         -0.88550       -1.32390       -3.97560
C         -0.81750       -2.20510       -2.89710
C         -0.24650       -1.79420       -1.68830
C          0.47980       -0.60290        1.69530
C         -0.01960        0.06880        2.86050
C         -0.16450        1.55720        2.99300
C         -0.43170       -0.69860        3.96130
C         -0.37100       -2.09110        3.95740
C          0.12600       -2.75270        2.85000
C          0.58240       -2.02340        1.75460
Cu         3.42170        0.07620        0.05230
Br         3.42170        1.52280        2.20060
C          3.42170       -1.12470       -1.73100
C          4.07340       -1.16320       -2.88580
C          5.57170        0.07620        0.05230
N          6.49080       -0.67620       -0.74950
C          6.54490       -1.88230       -1.66130
C          5.53470       -3.01930       -1.31920
C          5.38320       -3.87950       -2.59980
C          6.64790       -4.70490       -2.72380
C          7.88650       -3.79410       -2.73750
C          7.87900       -2.73460       -1.61080
C          7.70460       -0.13050       -0.52400
C          7.66350        0.69280        0.48340
N          6.41240        0.77360        0.96330
C          6.32480        1.52710        2.22770
C          6.24760        3.02450        1.89600
C          6.02820        3.87480        3.14220
C          7.12590        3.61630        4.17820
C          7.17010        2.12880        4.55690
C          7.45350        1.27770        3.29600
H         -1.96330        0.86360       -0.13840
H         -3.00560        3.11500       -0.34570
H         -1.59690        5.15680       -0.30420
H          0.85100        4.96600       -0.05710
H          1.89870        2.76310        0.12960
H          0.61110        1.38270       -2.58230
H         -0.43650        0.65290       -4.68630
H         -1.34890       -1.63870       -4.90330
H         -1.22180       -3.20540       -2.99340
H         -0.23830       -2.49960       -0.87810
H          0.77010        2.06200        2.71920
H         -0.38060        1.85000        4.04510
H         -1.01320        1.93280        2.40990
H         -0.83440       -0.21560        4.85380
H         -0.72530       -2.65720        4.80850
H          0.18120       -3.82740        2.83380
H          0.94760       -2.58140        0.89520
H          2.50590       -1.69370       -1.78840
H          4.87010       -0.50920       -3.17130
H          3.66030       -1.84460       -3.63850
H          6.56270       -1.49040       -2.69580
H          4.62750       -2.71820       -0.83680
H          5.83370       -3.64890       -0.45980
H          5.29140       -3.27150       -3.53080
H          4.48870       -4.53050       -2.54760
H          6.61530       -5.32460       -3.64620
H          6.67560       -5.37810       -1.84420
H          7.91790       -3.24450       -3.70290
H          8.79620       -4.42390       -2.66100
H          8.81330       -2.17810       -1.77490
H          7.97530       -3.21460       -0.60830
H          8.63630       -0.34240       -1.01060
H          8.54590        1.17960        0.87230
H          5.59470        1.03170        2.86250
H          5.42860        3.20710        1.17130
H          7.20310        3.31430        1.40840
H          5.03640        3.63560        3.58220
H          6.03210        4.94280        2.84150
H          6.92740        4.23690        5.07730
H          8.11120        3.91340        3.75720
H          6.19770        1.83470        5.01570
H          7.96320        1.96560        5.31820
H          7.49770        0.20150        3.59120
H          8.45930        1.56860        2.94190
