90

P          1.07650       -0.05460        0.03410
C         -0.09420       -0.30360        1.56060
C          0.00300        0.60010        2.84490
C         -0.89250        1.83160        2.83090
C         -2.34950        1.43160        2.57530
C         -2.49840        0.58580        1.30050
C         -1.59480       -0.64520        1.37620
C          0.88150        1.84680       -0.50690
C          1.68150        2.18210       -1.77540
C          0.94130        1.66970       -3.04530
C         -0.27090        2.58610       -3.29620
C         -1.20510        2.68950       -2.07690
C         -0.41700        2.76330       -0.72810
C          0.53330       -1.61210       -0.87760
C         -0.65410       -1.66360       -1.67760
C         -1.53310       -0.50990       -1.91670
C         -1.13530       -2.86640       -2.21260
C         -0.49880       -4.06160       -1.97120
C         -1.08440       -5.34560       -2.47410
C          0.64960       -4.06200       -1.17860
C          1.16760       -2.86880       -0.63670
C          2.37380       -2.98200        0.25620
Cu         3.53650       -0.05460        0.03410
Br         3.46760       -0.25970       -2.46820
C          3.38460        0.04940        2.11800
C          4.29620        0.31210        3.05060
P          5.99650       -0.05460        0.03410
N          7.15910       -0.64530       -1.24110
C          6.78590       -0.34290       -2.64440
C          8.60660       -0.85320       -1.11700
N          6.22250        1.68610       -0.36300
C          5.67570        2.49630        0.72870
C          7.63940        2.08480       -0.53290
N          6.39780       -0.92390        1.54880
C          5.93000       -2.31410        1.50000
C          7.77150       -0.86840        2.06760
H          0.32920       -1.27520        1.89990
H          0.99310        0.95430        3.15100
H         -0.35840       -0.02170        3.69890
H         -0.50900        2.54120        2.08780
H         -0.83250        2.33390        3.82270
H         -2.98200        2.34530        2.51890
H         -2.70690        0.82670        3.43800
H         -2.27070        1.16020        0.40110
H         -3.55630        0.26990        1.20950
H         -1.77180       -1.34650        0.55440
H         -1.92740       -1.20370        2.28340
H          1.39460        2.34970        0.33750
H          2.70700        1.87540       -1.60620
H          1.82970        3.27760       -1.90910
H          0.65070        0.60650       -2.93710
H          1.59500        1.73750       -3.93730
H         -0.84930        2.27040       -4.19970
H          0.13440        3.59380       -3.51310
H         -1.96440        1.90550       -2.10740
H         -1.84680        3.58820       -2.20220
H         -1.10920        2.82130        0.11310
H         -0.01710        3.79960       -0.75280
H         -1.13040        0.28700       -1.31660
H         -2.56360       -0.70350       -1.54430
H         -1.58110       -0.26070       -2.99660
H         -2.05600       -2.85790       -2.79320
H         -2.01990       -5.16660       -3.05450
H         -1.34770       -5.99950       -1.61610
H         -0.35960       -5.86280       -3.12950
H          1.12330       -5.00980       -0.96300
H          2.72380       -4.03470        0.34400
H          2.13540       -2.63350        1.28300
H          3.18880       -2.38470       -0.18300
H          2.42500       -0.20190        2.47460
H          5.30000        0.60710        2.83600
H          4.00970        0.26360        4.09530
H          5.86630       -0.86380       -2.91880
H          7.51320       -0.77030       -3.36950
H          6.70080        0.73870       -2.84930
H          8.94950       -1.05970       -0.11980
H          9.19190       -0.01500       -1.54050
H          8.86850       -1.75110       -1.71970
H          4.61440        2.24760        0.91470
H          5.71340        3.57370        0.45430
H          6.27470        2.36380        1.65970
H          8.03200        1.79010       -1.51630
H          8.28880        1.68990        0.27640
H          7.74880        3.19050       -0.55850
H          4.85930       -2.34350        1.23990
H          6.02250       -2.78540        2.50080
H          6.50680       -2.91050        0.75870
H          8.24450        0.11450        1.88930
H          8.39330       -1.71660        1.70910
H          7.74330       -1.03330        3.16420
