69

P          0.92590        0.03430       -0.05770
C          0.25500        0.16820       -1.86340
C         -1.25000        0.27240       -2.18330
C         -1.78300        1.70980       -2.11800
C         -1.01090        2.64700       -3.03990
C          0.48280        2.59370       -2.70720
C          0.96630        1.13760       -2.85240
C          0.25750       -1.73310        0.40400
C          0.38990       -2.02920        1.93000
C         -0.77130       -1.44130        2.73770
C         -2.12600       -2.06920        2.30840
C         -2.40960       -2.07330        0.78890
C         -1.12540       -2.39980       -0.01530
C          0.37330        1.72600        0.92470
C         -1.03330        1.90960        1.33040
C         -2.10480        0.97550        1.04390
C         -1.52990        2.96250        2.11980
C         -0.73090        3.96160        2.58460
C         -1.28560        5.04430        3.48810
C          0.60310        3.90150        2.25170
C          1.17620        2.83110        1.49320
C          2.65440        3.04520        1.45670
Cu         3.38590        0.03430       -0.05770
Br         3.38590        2.34660       -1.22450
C          3.38590       -1.88510        0.91090
C          4.31810       -2.37150        1.73800
C          5.53590        0.03430       -0.05770
N          6.26730        1.06830       -0.55840
C          7.53900        0.67490       -0.38900
C          7.55580       -0.56230        0.19220
O          6.30980       -0.93250        0.37570
H          0.57590       -0.82780       -2.24380
H         -1.86330       -0.40160       -1.58240
H         -1.38400       -0.06310       -3.23930
H         -1.67270        2.11990       -1.11660
H         -2.85660        1.70630       -2.39730
H         -1.39720        3.68250       -2.92150
H         -1.16640        2.33810       -4.09660
H          0.66010        2.97210       -1.67850
H          1.02320        3.25500       -3.42050
H          2.05250        0.99400       -2.83530
H          0.72620        0.84110       -3.89950
H          0.91080       -2.36180       -0.22270
H          1.33090       -1.64130        2.35870
H          0.37090       -3.13080        2.09200
H         -0.70960       -0.34950        2.66050
H         -0.62250       -1.66560        3.81580
H         -2.97590       -1.60030        2.85920
H         -2.08190       -3.13130        2.61920
H         -2.94200       -1.19370        0.41460
H         -3.21110       -2.81190        0.57590
H         -1.30830       -2.38560       -1.10690
H         -0.99290       -3.48360        0.20350
H         -1.61240        0.23490        0.45860
H         -2.95360        1.42810        0.49000
H         -2.53300        0.59120        1.99630
H         -2.58190        2.99150        2.39990
H         -2.36800        4.88980        3.70580
H         -1.16700        6.05060        3.03320
H         -0.75420        5.02410        4.46630
H          1.20930        4.70870        2.64980
H          3.04290        3.50980        2.38830
H          2.83560        3.87820        0.73160
H          3.20220        2.09880        1.35960
H          2.59040       -2.57170        0.80550
H          5.18240       -1.82570        2.06650
H          4.18140       -3.36040        2.16950
H          8.40790        1.26410       -0.66970
H          8.41760       -1.15700        0.47400
