71

P          0.94780       -0.08070        0.02780
C         -0.37500       -0.56120        1.36100
C         -0.42730       -2.06820        1.80890
C          0.62430       -2.49370        2.86170
C          0.57190       -1.58780        4.12620
C          0.55570       -0.06340        3.83070
C         -0.44600        0.27460        2.70960
C          0.58650        1.83700        0.03990
C          1.31160        2.63860       -1.02790
C          0.66380        2.37160       -2.41800
C         -0.68130        3.09310       -2.44670
C         -1.58900        2.56140       -1.32920
C         -0.86530        2.46580        0.03970
C          0.46000       -1.20340       -1.35110
C          1.30240       -2.15410       -2.00450
C          2.73230       -2.43090       -1.67160
C          0.75920       -2.95890       -3.02320
C         -0.57930       -2.85780       -3.38760
C         -1.40180       -1.94440       -2.75610
C         -0.88260       -1.12520       -1.74990
Cu         3.40780       -0.08070        0.02780
Br         3.40780        0.92660       -2.35830
C          3.40780       -0.91680        2.00860
C          4.33840       -1.67890        2.59800
N          5.50780       -0.08070        0.02780
C          6.18510        0.12720        1.20070
C          7.57720        0.32530        1.22160
O          8.24240        0.72360        2.34240
C          7.64780        1.20780        3.48810
C          8.28870        0.19850        0.03420
C          7.60700       -0.02330       -1.15640
C          6.21190       -0.10220       -1.14520
H         -1.33550       -0.35510        0.86440
H         -0.40870       -2.75490        0.94380
H         -1.40330       -2.21850        2.32550
H          1.60300       -2.57440        2.38220
H          0.43170       -3.53790        3.19790
H          1.39120       -1.84150        4.83640
H         -0.38160       -1.81920        4.63950
H          1.52600        0.41170        3.63110
H          0.27290        0.45800        4.77170
H         -0.43520        1.36500        2.55210
H         -1.43600        0.04210        3.16010
H          1.02660        2.15070        1.01100
H          2.36610        2.46570       -0.85040
H          1.26960        3.73410       -0.84340
H          0.51930        1.28340       -2.61200
H          1.29080        2.78000       -3.23630
H         -1.18540        2.98030       -3.43310
H         -0.47880        4.17880       -2.30650
H         -1.96830        1.57840       -1.62450
H         -2.46960        3.24240       -1.24610
H         -1.54750        2.04340        0.79720
H         -0.71940        3.53170        0.34250
H          3.10560       -1.87420       -0.81740
H          3.37020       -2.22000       -2.55720
H          2.85100       -3.50030       -1.39840
H          1.37950       -3.69410       -3.51860
H         -0.97670       -3.50010       -4.16110
H         -2.44670       -1.87460       -3.02120
H         -1.57100       -0.45530       -1.27350
H          2.52690       -0.78630        2.50570
H          5.25600       -1.96640        2.10430
H          4.15990       -2.07360        3.59300
H          5.64320        0.29770        2.10700
H          8.42680        1.63100        4.15220
H          7.10130        0.40540        4.02030
H          6.94530        2.03930        3.23410
H          9.36120        0.32620        0.02230
H          8.15020       -0.09670       -2.08910
H          5.71580       -0.25270       -2.08580
