85

P          0.91750        0.04790        0.03000
C         -0.25590        1.00480        1.09610
C          0.32090        0.85840       -1.49260
C         -0.04310       -1.47310        0.41240
Cu         3.37750        0.04790        0.03000
Br         3.48460        1.94000       -1.65960
C          3.38370       -1.83100        1.00040
C          2.67500       -2.91850        0.67500
C          5.52750        0.04790        0.03000
N          6.25760        1.25140       -0.00950
C          5.93050        2.71480        0.04960
C          4.84960        3.30180        0.85830
C          3.94830        2.63210        1.90480
C          2.48280        2.55700        1.50880
C          4.47840        1.35800        2.53680
C          4.63500        4.69970        0.85170
C          5.46810        5.56320        0.18450
C          6.54740        5.06970       -0.50360
C          6.80380        3.68380       -0.60930
C          8.02190        3.32110       -1.47140
C          7.85420        3.84690       -2.89910
C          9.34300        3.85130       -0.86450
C          7.52070        0.89840        0.28870
C          7.59190       -0.45200        0.47230
N          6.37770       -0.99530        0.37600
C          6.33490       -2.46250        0.71740
C          6.84350       -2.87520        2.03820
C          7.32820       -1.92840        3.16890
C          6.37320       -1.96130        4.37140
C          8.76010       -2.26470        3.67770
C          6.94980       -4.24510        2.36500
C          6.59330       -5.23800        1.49800
C          6.09600       -4.92540        0.26910
C          5.94880       -3.58830       -0.19550
C          5.61150       -3.61830       -1.71670
C          4.16020       -3.45520       -2.23470
C          6.73760       -2.96930       -2.50180
H         -1.32930        0.85320        0.87070
H         -0.07160        2.09330        1.00150
H         -0.08000        0.72000        2.15820
H         -0.79600        0.83080       -1.47110
H          0.62580        0.29000       -2.39080
H          0.61710        1.92230       -1.54560
H         -1.13710       -1.26080        0.38310
H          0.18650       -1.85540        1.42670
H          0.05980       -2.23040       -0.38140
H          4.03910       -1.92790        1.85310
H          2.00080       -2.95320       -0.15990
H          2.77550       -3.82630        1.26540
H          3.96070        3.30050        2.79520
H          2.37290        2.10910        0.53950
H          1.99170        3.54680        1.42670
H          1.94310        1.92000        2.23050
H          4.27610        0.48110        1.94200
H          3.93470        1.15290        3.47940
H          5.55950        1.47780        2.76330
H          3.83040        5.15310        1.42940
H          5.29620        6.63190        0.24080
H          7.19060        5.80310       -0.97410
H          8.11290        2.23500       -1.59460
H          7.82660        4.95600       -2.93200
H          6.91010        3.45220       -3.32840
H          8.70590        3.50960       -3.52480
H          9.39190        4.96180       -0.87130
H         10.20560        3.47090       -1.45380
H          9.47610        3.51490        0.18550
H          8.34730        1.55270        0.45660
H          8.49360       -0.95770        0.74790
H          7.33490       -0.87690        2.84740
H          6.28900       -2.97920        4.80780
H          5.36840       -1.60970        4.06320
H          6.74140       -1.27770        5.16950
H          8.81960       -3.25840        4.17430
H          9.07730       -1.53560        4.45610
H          9.50630       -2.24250        2.85830
H          7.35360       -4.58010        3.31050
H          6.73440       -6.27840        1.76900
H          5.87610       -5.78420       -0.35730
H          5.73780       -4.66240       -2.09410
H          3.62360       -2.53600       -1.95010
H          3.54980       -4.34280       -1.92550
H          4.16810       -3.52170       -3.35050
H          6.89560       -1.91090       -2.23630
H          6.57580       -3.09730       -3.59300
H          7.66690       -3.53970       -2.25420
