44

P          1.00470       -0.03330       -0.09420
O          0.58550       -1.63360       -0.56640
C         -0.77610       -1.92600       -0.31640
C         -1.06510       -3.34260       -0.78660
O          0.88270        0.72530        1.42410
C          1.39030       -0.20110        2.36470
C          0.97040        0.19080        3.77300
C         -0.36690        0.90110       -0.83210
C         -1.22680        1.79440       -0.17040
C         -2.24680        2.43700       -0.89070
C         -2.41560        2.18810       -2.26120
C         -1.55930        1.31060       -2.91960
C         -0.53650        0.68680       -2.21620
Cu         3.46470       -0.03330       -0.09420
Br         3.46470        2.44960        0.64300
C          3.46470       -2.09440       -0.70610
C          4.33530       -3.05360       -0.38430
C          5.61470       -0.03330       -0.09420
N          6.44980       -0.96720       -0.61910
H          6.25020       -1.82810       -1.16030
C          7.69910       -0.52680       -0.39850
Cl         9.15340       -1.36470       -0.90710
C          7.63000        0.67420        0.25230
Cl         8.97680        1.66550        0.78020
N          6.33700        0.99200        0.42030
H         -1.46210       -1.30300       -0.92070
H         -1.01980       -1.83460        0.76370
H         -0.82360       -3.43690       -1.86980
H         -2.14410       -3.57140       -0.64980
H         -0.45640       -4.06910       -0.21390
H          2.50190       -0.20840        2.31950
H          0.99610       -1.23500        2.20980
H          1.33000        1.21150        4.01330
H          1.41080       -0.52600        4.50130
H         -0.13560        0.15180        3.86860
H         -1.12110        2.00610        0.88160
H         -2.91050        3.12960       -0.39790
H         -3.20640        2.67340       -2.81560
H         -1.68150        1.11560       -3.97960
H          0.11740        0.00670       -2.75100
H          2.61280       -2.44170       -1.26970
H          5.17540       -2.88850        0.27380
H          4.17080       -4.06460       -0.74760
H          6.00350        1.85530        0.89180
