77

P          0.95240        0.07840       -0.03990
C          0.06960       -1.58060       -0.62220
C         -1.37860       -2.15530       -0.26140
C         -1.80750       -3.25220       -1.24560
C         -0.83290       -4.41610       -1.20990
C          0.61720       -3.93260       -1.34510
C          0.94680       -2.82840       -0.30960
C          0.25740        0.70390        1.62680
C         -1.26390        0.95190        1.91060
C         -2.04730       -0.27590        2.41020
C         -1.36650       -1.02080        3.56060
C          0.10950       -1.29390        3.24760
C          0.82910        0.00300        2.89430
C          0.51130        1.06200       -1.62730
C         -0.81240        1.10640       -2.23380
C         -2.00880        0.35220       -1.80300
C         -1.09460        1.90690       -3.34570
C         -0.15000        2.72860       -3.90170
C         -0.51650        3.57540       -5.08960
C          1.11590        2.76900       -3.33440
C          1.45600        1.96750       -2.21990
C          2.83170        2.16590       -1.67970
Cu         3.41240        0.07840       -0.03990
Br         3.29660       -1.32320       -2.13460
C          3.82120        1.28300        1.72680
C          3.13940        2.00230        2.62610
C          5.56240        0.07840       -0.03990
N          6.36090       -0.16120        1.05210
C          5.98260       -0.65060        2.37990
C          7.62420       -0.08790        0.63480
C          7.62740        0.18030       -0.70760
N          6.35270        0.26030       -1.13710
C          5.99040        0.68470       -2.48650
H          0.13020       -1.45700       -1.71840
H         -2.24690       -1.50160       -0.29690
H         -1.38370       -2.63240        0.74770
H         -1.85800       -2.83090       -2.26960
H         -2.82860       -3.62440       -0.99060
H         -1.09460       -5.12290       -2.02690
H         -0.95070       -4.94080       -0.23910
H          0.77400       -3.51480       -2.36390
H          1.29170       -4.80270       -1.22220
H          2.01230       -2.60400       -0.35300
H          0.79910       -3.22250        0.71950
H          0.59750        1.74030        1.52950
H         -1.76630        1.45440        1.06770
H         -1.33590        1.67790        2.75190
H         -2.12900       -0.95340        1.62430
H         -3.09790       -0.02870        2.66760
H         -1.88400       -1.99240        3.73760
H         -1.44870       -0.41400        4.48580
H          0.21620       -1.99610        2.40980
H          0.58180       -1.74960        4.14620
H          1.90530       -0.20820        2.79040
H          0.68830        0.68570        3.76860
H         -2.13950        0.47780       -0.72860
H         -1.92270       -0.65800       -2.22540
H         -2.97000        0.70470       -2.23290
H         -2.08430        1.89850       -3.79240
H         -1.56720        3.39740       -5.41350
H          0.14520        3.33370       -5.94400
H         -0.42320        4.64840       -4.82600
H          1.83740        3.44900       -3.77180
H          3.38720        2.96140       -2.22040
H          3.39340        1.25130       -1.83160
H          2.79330        2.44420       -0.60970
H          4.86310        1.45420        1.91700
H          2.10550        2.16510        2.69130
H          3.68890        2.56150        3.37840
H          4.89760       -0.83980        2.45910
H          6.32770        0.05210        3.16840
H          6.46620       -1.64060        2.54870
H          8.50500       -0.25750        1.25380
H          8.50350        0.32500       -1.33290
H          6.89810        0.86630       -3.10060
H          5.47440        1.66480       -2.42620
H          5.37740       -0.05190       -3.01780
