72

P          0.94850        0.07240       -0.04590
C          0.12820        0.27560       -1.69210
C         -1.05000       -0.39580       -2.07020
C         -1.49720       -0.33640       -3.40620
C         -0.79330        0.40020       -4.36830
C          0.37040        1.06060       -4.00770
C          0.82070        0.98310       -2.69330
C          0.52820       -1.64310        0.29980
C          0.87400       -2.66100       -0.60710
C          0.54920       -3.99140       -0.32490
C         -0.12890       -4.31220        0.84960
C         -0.49030       -3.30070        1.74640
C         -0.17070       -1.96980        1.47190
C          0.41000        1.61460        0.80100
C          0.67750        1.79390        2.19680
C          1.50400        0.84690        3.02320
C          0.11990        2.88340        2.88580
C         -0.68380        3.80510        2.22770
C         -0.94270        3.65190        0.86900
C         -0.40630        2.57120        0.16110
Cu         3.40850        0.07240       -0.04590
Br         3.40850        2.46720       -1.03220
C          3.40850       -1.91560        0.77280
C          3.45230       -2.22480        2.06980
P          5.86850        0.07240       -0.04590
N          7.02820        1.00820       -1.07740
C          6.84190        0.60500       -2.49080
C          6.70320        2.48350       -1.10160
N          6.14120        1.17800        1.34940
C          5.53540        0.62030        2.55730
C          7.57970        1.42220        1.65670
N          6.30520       -1.65410       -0.07690
C          5.78650       -2.32300       -1.28680
C          7.74780       -1.88000        0.04510
H         -1.59050       -1.00480       -1.36100
H         -2.38130       -0.87430       -3.71080
H         -1.11600        0.42830       -5.39500
H          0.94560        1.61290       -4.74270
H          1.73510        1.46180       -2.50880
H          1.40440       -2.42610       -1.52110
H          0.82960       -4.77530       -1.01910
H         -0.37390       -5.34280        1.07030
H         -1.02300       -3.55190        2.65710
H         -0.45540       -1.19440        2.16910
H          2.00680        0.09260        2.40660
H          0.85880        0.32930        3.76590
H          2.28900        1.41030        3.57170
H          0.30180        3.01410        3.94760
H         -1.11570        4.63470        2.77580
H         -1.58210        4.36390        0.36610
H         -0.68110        2.48950       -0.87590
H          3.36850       -2.74200        0.07470
H          3.49030       -1.48240        2.84980
H          3.44070       -3.26970        2.36530
H          7.28120       -0.36930       -2.70720
H          7.36810        1.30540       -3.18430
H          5.75950        0.63170       -2.78090
H          6.37650        2.92590       -0.15440
H          5.92650        2.76040       -1.84370
H          7.61640        3.04140       -1.41310
H          4.46570        0.42900        2.38910
H          5.60450        1.35970        3.38630
H          6.06090       -0.31060        2.87520
H          8.13120        1.95220        0.85900
H          8.13250        0.49170        1.87110
H          7.67640        2.10090        2.53110
H          4.76010       -1.98580       -1.53900
H          5.76290       -3.42010       -1.12120
H          6.41620       -2.16750       -2.17800
H          8.11990       -1.49210        1.00770
H          8.30680       -1.41620       -0.79590
H          7.95730       -2.97200        0.04620
