68

P          1.03320       -0.08920       -0.03080
C         -0.06870       -1.57000        0.05210
C         -1.11520       -1.71560        0.98700
C         -1.69300       -2.97050        1.22430
C         -1.22360       -4.10330        0.55830
C         -0.22480       -3.97370       -0.40160
C          0.32050       -2.71530       -0.67910
C          0.62060        0.58130        1.60660
C          0.98120       -0.11820        2.76970
C          0.47830        0.28110        4.01640
C         -0.38760        1.37580        4.10890
C         -0.72990        2.08960        2.96130
C         -0.22110        1.70430        1.72000
C          0.29830        0.84340       -1.42320
C          0.99010        1.30290       -2.57860
C          2.44140        1.03550       -2.85940
C          0.29020        2.03320       -3.56010
C         -1.07220        2.29740       -3.42590
C         -1.76240        1.81840       -2.31970
C         -1.08800        1.09740       -1.33760
Cu         3.49320       -0.08920       -0.03080
Br         3.49320        2.49930       -0.12080
C          3.49320       -2.23790        0.04390
C          4.43160       -3.18530        0.15030
C          5.64320       -0.08920       -0.03080
N          6.39240       -0.84350       -0.77470
C          5.93400       -1.67380       -1.86870
C          7.78280       -0.54590       -0.57860
C          7.78320        0.70610        0.31220
N          6.39560        0.86590        0.68230
C          5.98610        1.31610        1.98950
C          6.82790        2.13650        2.76490
C          6.45580        2.52490        4.05730
C          5.24040        2.10380        4.59690
C          4.39230        1.29040        3.84870
C          4.75800        0.89870        2.55930
H         -1.46360       -0.88520        1.57780
H         -2.47250       -3.07410        1.96620
H         -1.62550       -5.08200        0.79340
H          0.15720       -4.85740       -0.90280
H          1.12330       -2.66790       -1.40530
H          1.60430       -1.00120        2.70810
H          0.73070       -0.27810        4.90830
H         -0.80650        1.66400        5.06430
H         -1.41400        2.92700        3.02540
H         -0.53960        2.26210        0.85610
H          2.92290        0.42770       -2.08060
H          2.98410        1.99880       -2.96920
H          2.53050        0.47570       -3.81410
H          0.80280        2.39840       -4.44170
H         -1.59610        2.86100       -4.18570
H         -2.82280        2.01040       -2.21770
H         -1.66340        0.74040       -0.49330
H          2.52920       -2.64910        0.12410
H          5.48930       -3.01410        0.19590
H          4.10210       -4.22260        0.21940
H          4.83810       -1.64740       -1.98560
H          6.33050       -2.70060       -1.78670
H          6.33920       -1.24290       -2.80970
H          8.29050       -0.30540       -1.54060
H          8.27870       -1.41600       -0.08860
H          8.08910        1.60440       -0.27020
H          8.45710        0.56190        1.18600
H          7.78120        2.47290        2.38140
H          7.11550        3.14820        4.64620
H          4.95860        2.39940        5.59980
H          3.45440        0.95310        4.27170
H          4.08030        0.24870        2.03320
