58

P          1.01790       -0.06920        0.06990
C         -0.19580       -0.21610        1.58750
C         -0.31720       -1.60270        2.35270
C          0.72090       -1.90130        3.47980
C          0.84910       -0.70710        4.46640
C          0.97790        0.68750        3.80030
C         -0.10350        0.87760        2.71560
C          0.75140        1.77800       -0.35100
C          1.42070        2.16740       -1.65580
C          0.61880        1.71950       -2.89310
C         -0.66350        2.54830       -2.93430
C         -1.48920        2.27460       -1.66930
C         -0.65820        2.47960       -0.38300
C          0.33590       -1.42760       -1.05630
C          1.09550       -2.18180       -2.00290
C          2.54350       -2.02630       -2.23540
C          0.48630       -3.16720       -2.79650
C         -0.86070       -3.46610       -2.66080
C         -1.62370       -2.75210       -1.75150
C         -1.04820       -1.73990       -0.98440
Cu         3.47790       -0.06920        0.06990
Br         4.29830        0.51290       -2.30970
C          3.43850       -0.50350        2.02650
C          4.44230       -0.61370        2.89210
C          5.62790       -0.06920        0.06990
O          6.84600       -0.06920        0.06990
H         -1.18130       -0.00240        1.15220
H         -0.38530       -2.46590        1.65980
H         -1.27570       -1.56060        2.90430
H          1.68210       -2.25980        3.07780
H          0.40270       -2.79060        4.06930
H          1.68360       -0.87520        5.18780
H         -0.08790       -0.68120        5.05920
H          1.96930        0.94290        3.40890
H          0.85380        1.45620        4.59220
H         -0.03310        1.89980        2.30980
H         -1.06000        0.82850        3.27970
H          1.30930        2.27690        0.47320
H          2.38120        1.74510       -1.60470
H          1.58110        3.26360       -1.71650
H          0.37580        0.63660       -2.85980
H          1.20820        1.91140       -3.81440
H         -1.25910        2.31260       -3.84280
H         -0.38230        3.62770       -2.99850
H         -1.87500        1.23800       -1.70290
H         -2.35680        2.97690       -1.66690
H         -1.27670        2.27860        0.50840
H         -0.44190        3.57560       -0.35960
H          2.94390       -1.41210       -1.44440
H          2.70280       -1.60470       -3.25630
H          3.07260       -2.99540       -2.16320
H          1.07160       -3.73920       -3.51790
H         -1.31010       -4.24650       -3.25480
H         -2.67450       -2.98770       -1.63300
H         -1.73110       -1.25090       -0.32060
H          2.46240       -0.64000        2.31200
H          5.47230       -0.44710        2.61110
H          4.21580       -0.84870        3.92790
