66

P          0.94660       -0.05340       -0.06550
C         -0.15120       -0.05170       -1.52330
C          0.63400       -1.78380        0.41950
C          0.03420        1.26770        0.79560
Cu         3.40660       -0.05340       -0.06550
Br         3.40660       -2.23740       -1.45780
C          3.40660        1.75960        1.09020
C          3.03620        2.93680        0.59320
P          5.86660       -0.05340       -0.06550
C          6.47220        0.75500       -1.63200
C          6.62660        2.15770       -1.69330
C          6.96630        2.81050       -2.88020
C          7.11880        2.09500       -4.06780
O          7.42040        2.77850       -5.20390
C          7.83170        2.23290       -6.40510
C          6.92300        0.71090       -4.05180
C          6.59740        0.06420       -2.86300
C          6.64460        1.06760        1.17060
C          6.07850        1.18860        2.44460
C          6.65640        2.00360        3.42370
C          7.86630        2.67030        3.17000
O          8.47070        3.47090        4.08780
C          7.96670        3.80680        5.32850
C          8.49320        2.47350        1.93800
C          7.89810        1.67020        0.95620
C          6.74000       -1.71480       -0.35280
C          6.35160       -2.68140       -1.27030
C          6.81420       -3.97300       -1.28050
C          7.80440       -4.35260       -0.40480
O          8.22210       -5.66920       -0.36430
C          7.49890       -6.74100       -0.90480
C          8.37700       -3.39310        0.45080
C          7.82530       -2.08820        0.49410
H         -1.21190       -0.23970       -1.27570
H          0.20930       -0.83230       -2.22990
H         -0.04480        0.92520       -2.04370
H         -0.46270       -1.95020        0.47170
H          1.06740       -1.97590        1.42080
H          1.03180       -2.50540       -0.31210
H         -1.05360        1.01870        0.75410
H          0.18030        2.24660        0.30090
H          0.31680        1.30460        1.86410
H          3.55850        1.73250        2.15480
H          2.76580        3.05230       -0.44760
H          2.97490        3.79360        1.26200
H          6.47800        2.77750       -0.82400
H          7.09070        3.88170       -2.88530
H          7.88670        3.03420       -7.16430
H          7.11750        1.46240       -6.76810
H          8.84180        1.78710       -6.27940
H          6.99100        0.11640       -4.95370
H          6.43340       -0.96910       -2.98590
H          5.19230        0.63610        2.69720
H          6.16010        2.08840        4.38190
H          8.69040        4.46890        5.84770
H          7.81660        2.89750        5.94740
H          7.00650        4.35560        5.21640
H          9.44890        2.94350        1.74020
H          8.44400        1.52870        0.03090
H          5.65060       -2.53780       -2.02670
H          6.36090       -4.66430       -1.97810
H          8.02160       -7.70370       -0.74890
H          7.32930       -6.62070       -1.99550
H          6.49810       -6.81420       -0.39950
H          9.19670       -3.67690        1.10350
H          8.24340       -1.38820        1.19650
