45

C          1.02400       -0.65300       -0.05500
N          0.87230        0.17470        0.91100
C          1.80200        0.35290        1.99970
C         -0.33270        0.96160        0.75940
C         -0.90200        0.52040       -0.60020
N         -0.01940       -0.54680       -0.99080
C         -0.23700       -1.41090       -2.12320
Cu         2.78020       -1.86970       -0.29550
Br         3.79270       -0.09400       -1.88590
C          1.93970       -3.34380        1.02480
C          0.72950       -3.26400        1.58440
N          4.49560       -3.05820       -0.53040
C          4.49820       -4.33800       -0.66050
C          3.28080       -5.13750       -1.05420
C          2.11390       -4.48370       -1.51970
C          1.00010       -5.20150       -1.95630
C          1.03220       -6.58870       -1.97820
C          2.19280       -7.25950       -1.58040
C          3.30870       -6.54240       -1.11700
N          5.80080       -4.84900       -0.81020
C          6.72160       -3.75060       -0.89210
C          5.82730       -2.51890       -0.68250
H          2.65680       -0.35350        1.92540
H          1.27860        0.19320        2.96520
H          2.19640        1.39230        1.97670
H         -0.10600        2.04950        0.74820
H         -1.02860        0.71950        1.59180
H         -0.84660        1.32940       -1.36150
H         -1.94680        0.16000       -0.48270
H         -1.10250       -1.04830       -2.72110
H         -0.48830       -2.42700       -1.75240
H          0.66360       -1.45280       -2.76640
H          2.54170       -4.20850        1.27820
H          0.05560       -2.44020        1.40730
H          0.39450       -4.05320        2.24970
H          2.04870       -3.41050       -1.56980
H          0.11270       -4.67360       -2.29260
H          0.17780       -7.14380       -2.32980
H          2.21890       -8.34350       -1.62360
H          4.19020       -7.09860       -0.83980
H          6.05460       -5.82730       -1.00810
H          7.15840       -3.72680       -1.91060
H          7.52150       -3.83300       -0.12550
H          5.93120       -1.78700       -1.50240
H          6.08870       -2.03790        0.28900
