60

C          0.90100       -0.64300       -0.00200
N         -0.44370       -0.97810        0.04320
C         -1.08530       -2.30660       -0.10930
C         -0.84680       -3.20210        1.10230
C         -1.71310       -2.75120        2.28890
C         -3.19770       -2.95430        1.94420
C         -3.58650       -2.07380        0.75470
C         -2.63840       -2.31120       -0.44350
C         -1.09050        0.20090        0.09770
C         -0.19320        1.22800        0.07080
N          1.04850        0.71210       -0.02830
C          2.34500        1.41630       -0.19690
C          2.59970        1.64900       -1.69520
C          1.67270        2.71170       -2.27980
C          1.98390        4.05040       -1.61680
C          1.76920        3.97050       -0.09640
C          2.53660        2.78070        0.53850
Cu         2.65840       -1.88140       -0.01350
Br         2.76550       -1.70550       -2.59530
C          2.56950       -2.02750        2.12970
C          1.65150       -1.44260        2.90360
N          4.37500       -3.09110       -0.02470
C          5.23710       -1.92780        0.21060
N          4.58530       -4.03200        0.95150
C          5.34380       -4.97190        0.50970
C          5.62360       -4.77930       -0.83670
C          4.96050       -3.62490       -1.19750
H         -0.61170       -2.75120       -1.00920
H          0.22830       -3.18690        1.34480
H         -1.11760       -4.24820        0.84120
H         -1.52400       -1.68050        2.53530
H         -1.46330       -3.36640        3.17200
H         -3.84010       -2.70240        2.81600
H         -3.36680       -4.02730        1.70040
H         -3.57420       -1.01860        1.08220
H         -4.63740       -2.30850        0.45740
H         -2.89130       -1.61410       -1.27440
H         -2.88000       -3.33390       -0.81100
H         -2.16890        0.33670        0.12140
H         -0.47510        2.25110        0.09890
H          3.13260        0.72150        0.18180
H          2.41400        0.73940       -2.25000
H          3.65930        1.94520       -1.86150
H          0.60830        2.42920       -2.13520
H          1.85080        2.78390       -3.37340
H          1.33850        4.84260       -2.05350
H          3.04300        4.30630       -1.83630
H          0.69410        3.90920        0.10420
H          2.10150        4.92490        0.36440
H          2.32350        2.69940        1.62470
H          3.61620        3.03860        0.43720
H          3.33110       -2.61410        2.62940
H          0.85620       -0.83180        2.50630
H          1.69460       -1.57650        3.97970
H          4.95650       -1.43370        1.16290
H          5.11440       -1.16560       -0.59230
H          6.31820       -2.19470        0.30260
H          5.69320       -5.79590        1.11650
H          6.22820       -5.39830       -1.48630
H          4.97570       -3.18640       -2.18470
