67

C          0.90100       -0.64300       -0.00200
N         -0.35080       -0.91400       -0.49050
C         -0.89970       -2.04170       -1.29760
C         -2.08890       -2.69100       -0.58670
C         -1.39530       -1.51060       -2.66740
C         -1.11860        0.16430       -0.23950
C         -0.37450        1.07490        0.47730
N          0.84980        0.57130        0.64180
C          1.76350        1.09860        1.67090
C          2.18750        2.54940        1.42040
C          1.01170        1.05520        3.04110
Cu         2.65840       -1.88140       -0.01350
Br         3.97990        0.00470       -1.19850
C          1.56150       -3.44720        0.97020
C          1.16080       -3.19550        2.21750
C          4.41590       -3.11990       -0.02500
N          5.48690       -3.09120       -0.96590
C          5.80510       -2.58470       -2.36550
C          4.63810       -1.89520       -3.10320
C          7.14530       -1.79270       -2.30860
C          6.04440       -3.77040       -3.37280
C          6.36770       -4.03390       -0.56800
C          5.90460       -4.71590        0.45420
N          4.69210       -4.26120        0.80630
C          4.06990       -4.95160        1.99230
C          4.91920       -6.06400        2.71500
C          3.94000       -3.87500        3.10740
C          2.86080       -5.79840        1.51050
H         -0.09650       -2.79390       -1.47120
H         -1.78660       -3.12040        0.39430
H         -2.90290       -1.94730       -0.40650
H         -2.52400       -3.49790       -1.21600
H         -2.23180       -0.79120       -2.54190
H         -1.78500       -2.34120       -3.29210
H         -0.58810       -0.99540       -3.22340
H         -2.15110        0.30300       -0.50540
H         -0.75810        1.99590        0.88500
H          2.64560        0.42620        1.75060
H          1.29620        3.21140        1.36890
H          2.75760        2.63620        0.47570
H          2.81430        2.90750        2.26520
H          0.44400        0.10640        3.15990
H          1.70940        1.15000        3.89880
H          0.26850        1.87880        3.12610
H          1.14120       -4.28240        0.43350
H          1.53910       -2.30470        2.71360
H          0.54560       -3.88740        2.77650
H          3.69540       -2.10730       -2.55630
H          4.32920       -2.29870       -4.09040
H          4.92380       -0.86030       -3.39370
H          7.14670       -1.07320       -1.46790
H          7.38880       -1.29060       -3.26270
H          7.99120       -2.49560       -2.11210
H          5.11520       -4.37660       -3.50400
H          6.85860       -4.47640       -3.12730
H          6.31310       -3.36140       -4.37720
H          7.29710       -4.30970       -1.04440
H          6.45570       -5.53820        0.88120
H          5.88510       -5.68870        3.11260
H          5.15230       -6.92930        2.05240
H          4.34580       -6.47950        3.57730
H          4.95620       -3.65550        3.51840
H          3.32690       -4.21550        3.96770
H          3.63880       -2.88500        2.73430
H          3.13140       -6.84380        1.25340
H          2.61370       -5.56940        0.46510
H          2.04750       -5.87970        2.26240
