39

C          1.02400       -0.65300       -0.05500
N          0.60260       -0.21730        1.07630
C          1.21330       -0.48030        2.36100
C         -0.56680        0.62100        0.92590
C         -0.76450        0.72190       -0.59730
N          0.20820       -0.20590       -1.11180
C          0.18890       -0.73590       -2.45740
Cu         2.78020       -1.86970       -0.29550
Br         1.77090       -3.64210        1.30080
C          3.61810       -0.39850       -1.62060
C          4.91660       -0.08310       -1.68300
N          4.49560       -3.05820       -0.53040
C          5.00400       -3.89320        0.45110
O          4.43120       -3.93400        1.67880
C          4.86430       -4.64840        2.77570
C          6.18780       -4.62940        0.21310
C          6.83610       -4.53710       -1.00790
C          6.31380       -3.71990       -1.99030
C          5.15330       -2.99390       -1.73500
H          2.13260       -1.09150        2.26250
H          0.48280       -1.00430        3.01330
H          1.49630        0.48030        2.83850
H         -0.40640        1.63100        1.36390
H         -1.42960        0.11780        1.41300
H         -0.52210        1.73460       -0.98910
H         -1.80160        0.42940       -0.86720
H         -0.60870       -0.24240       -3.05290
H         -0.04310       -1.82120       -2.41100
H          1.14850       -0.59820       -2.97830
H          2.95160        0.22810       -2.19400
H          5.65470       -0.59120       -1.07530
H          5.25010        0.71360       -2.34040
H          4.14620       -4.50360        3.61000
H          5.86260       -4.28560        3.10310
H          4.90840       -5.73400        2.53980
H          6.62960       -5.26060        0.97210
H          7.74660       -5.09480       -1.18840
H          6.79890       -3.65150       -2.95760
H          4.76470       -2.41060       -2.55130
