39

C          0.90100       -0.64300       -0.00200
N         -0.28130       -1.01500        0.52380
C         -0.57010       -2.25740        1.22710
C         -1.12780        0.01230        0.30620
C         -0.44080        0.99970       -0.37990
N          0.82960        0.57040       -0.57520
C          1.88200        1.26340       -1.29870
Cu         2.65840       -1.88140       -0.01350
Br         1.94230       -2.87650       -2.29500
C          3.25290       -1.05540        1.88040
C          2.65730       -0.02740        2.48890
C          4.41590       -3.11990       -0.02500
N          5.58760       -2.69730        0.30190
C          5.94720       -1.30770        0.50230
C          6.57690       -3.72900        0.12540
C          5.72410       -4.98090       -0.03490
N          4.44940       -4.46230       -0.47620
C          3.27360       -5.30750       -0.51020
H          0.33420       -2.90140        1.26860
H         -1.38810       -2.80600        0.71240
H         -0.88380       -2.02540        2.26760
H         -2.15890        0.03540        0.62660
H         -0.84510        1.95530       -0.70230
H          1.50810        2.23620       -1.68640
H          2.18680        0.63840       -2.16010
H          2.75260        1.43700       -0.63530
H          4.08930       -1.51970        2.39060
H          1.81040        0.49060        2.06530
H          3.02580        0.30750        3.45360
H          5.09520       -0.62340        0.32350
H          6.68920       -1.01870       -0.27530
H          6.40040       -1.15340        1.50050
H          7.29310       -3.81410        0.97050
H          7.12080       -3.50990       -0.82100
H          5.56680       -5.39660        0.98800
H          6.16360       -5.76440       -0.68600
H          3.49550       -6.30330       -0.06590
H          2.95170       -5.46620       -1.55730
H          2.44790       -4.85480        0.08120
