81

P          0.94130        0.07700       -0.02480
C         -0.08350        1.07930       -1.26910
C          0.10740        2.60420       -1.11850
C          0.26280        0.71570       -2.73210
C          0.46150       -1.64610       -0.65100
C          0.89450       -2.79290        0.26400
C         -1.06540       -1.80720       -0.83500
C          0.33450        0.87660        1.56200
C         -1.20910        0.84470        1.67520
C          0.87010        0.20890        2.82890
Cu         3.40130        0.07700       -0.02480
Br         3.40130       -1.67720        1.88070
C          3.40130        1.53320       -1.60660
C          3.69890        1.25400       -2.87330
P          5.86130        0.07700       -0.02480
C          6.73750        0.12590       -1.65060
C          6.59210        1.17970       -2.56630
C          6.96910        1.02510       -3.91150
C          6.70130        2.10390       -4.91300
C          7.54240       -0.17680       -4.34330
C          7.72210       -1.22170       -3.45190
C          7.32190       -1.08220       -2.12350
C          6.38210        1.75780        0.38740
C          5.48210        2.79560        0.68700
C          5.95840        4.05470        1.09490
C          5.01900        5.18880        1.38720
C          7.33750        4.26190        1.24850
C          8.23430        3.23150        0.97990
C          7.75900        2.00720        0.53900
C          6.57040       -1.48160        0.73320
C          7.92350       -1.62380        1.14570
C          8.38470       -2.84210        1.71550
C          9.82850       -3.11440        2.00900
C          7.48580       -3.88010        1.96330
C          6.20510       -3.79520        1.45940
C          5.80760       -2.65560        0.76690
H         -1.15960        0.89280       -1.14710
H          1.15120        2.91850       -1.25600
H         -0.23460        2.97870       -0.14050
H         -0.48300        3.14500       -1.88940
H          1.30520        0.92930       -2.97210
H         -0.33950        1.31880       -3.44420
H          0.08800       -0.34050       -2.98860
H          0.94280       -1.83350       -1.63240
H          0.52080       -2.64640        1.30040
H          1.97980       -2.93360        0.21220
H          0.49530       -3.76380       -0.10280
H         -1.60920       -1.62810        0.10950
H         -1.31160       -2.83620       -1.17270
H         -1.48410       -1.15760       -1.62080
H          0.67340        1.93010        1.57980
H         -1.58170       -0.19550        1.76750
H         -1.72860        1.33670        0.83690
H         -1.53980        1.38970        2.58390
H          0.57100       -0.86050        2.87630
H          0.45250        0.71280        3.72910
H          1.96400        0.32130        2.89450
H          3.20560        2.56190       -1.34550
H          3.94480        0.24670       -3.18370
H          3.71690        2.06160       -3.60180
H          6.10950        2.08690       -2.24400
H          6.22870        2.99140       -4.44300
H          5.99690        1.70330       -5.67210
H          7.64100        2.40790       -5.41620
H          7.81170       -0.31480       -5.38030
H          8.13110       -2.16630       -3.79440
H          7.40500       -1.97140       -1.51740
H          4.42210        2.63190        0.60160
H          3.96900        4.88730        1.20630
H          5.26650        6.05050        0.74220
H          5.12660        5.48970        2.45580
H          7.71460        5.20900        1.59800
H          9.29780        3.38710        1.10950
H          8.47550        1.22220        0.34650
H          8.63010       -0.82650        0.99770
H         10.48580       -2.30690        1.63150
H         10.10370       -4.04260        1.45080
H         10.00280       -3.30040        3.08680
H          7.79790       -4.79110        2.46200
H          5.52560       -4.63090        1.57030
H          4.86330       -2.69390        0.26600
