49

C          0.90100       -0.64300       -0.00200
N         -0.36580       -1.11500       -0.03470
C         -0.84000       -2.52050       -0.08900
C          0.32210       -3.52840       -0.15680
C         -1.65950       -2.83240        1.18360
C         -1.73300       -2.71640       -1.33000
C         -1.13910       -0.02020        0.00910
C         -0.37160        1.09120        0.04200
N          0.97600        0.68660        0.05730
C          2.12960        1.59730        0.07500
C          2.11870        2.42450        1.37350
C          3.46740        0.81730        0.01320
C          2.10710        2.55090       -1.14200
Cu         2.65840       -1.88140       -0.01350
Br         2.61420       -1.92020       -2.60280
C          2.69520       -1.84920        2.13590
C          1.74870       -1.31680        2.91260
C          4.41590       -3.11990       -0.02500
N          5.50060       -2.88940       -0.78850
H          5.66040       -2.07870       -1.42670
C          6.36540       -3.87420       -0.48460
Cl         7.98650       -4.01460       -1.13790
C          5.76360       -4.72220        0.42050
Cl         6.42170       -6.21460        1.06450
N          4.55410       -4.22470        0.73190
H          0.98180       -3.43850        0.72860
H          0.91670       -3.37760       -1.07060
H         -0.05810       -4.57320       -0.18650
H         -1.02590       -2.71610        2.08660
H         -2.04030       -3.87700        1.15800
H         -2.53260       -2.15310        1.27520
H         -1.16120       -2.48900       -2.25340
H         -2.61970       -2.05220       -1.29250
H         -2.09900       -3.76710       -1.39220
H         -2.23040       -0.01410       -0.01160
H         -0.67920        2.13420        0.08510
H          2.13620        1.74760        2.26590
H          1.19410        3.05020        1.44350
H          2.99600        3.10730        1.44040
H          3.58250        0.15840        0.89310
H          4.33600        1.51160        0.02370
H          3.52350        0.22050       -0.90530
H          1.19200        3.18720       -1.12750
H          2.12560        1.97040       -2.07490
H          2.99290        3.23270       -1.12820
H          3.55750       -2.29740        2.61840
H          0.86320       -0.84700        2.51240
H          1.86400       -1.34460        3.99130
H          3.84130       -4.64200        1.37070
