46

C          1.02400       -0.65300       -0.05500
N          0.57240        0.12440       -0.96570
C          1.17580        0.30180       -2.25740
C         -0.61730        0.82110       -0.53420
C         -0.97390        0.14470        0.79950
N          0.18460       -0.66160        1.07410
C          0.40320       -1.40730        2.28970
Cu         2.78020       -1.86970       -0.29550
Br         1.31180       -3.81680       -1.16770
C          3.99920       -0.25340        0.42860
C          3.54020        0.94190        0.80760
P          4.78960       -3.26190       -0.57060
C          6.41980       -3.09680        0.26270
C          4.26390       -4.97390       -0.24310
C          5.53870       -2.85230       -2.24720
C          5.96550       -1.38360       -2.40370
C          6.76360       -3.77400       -2.55340
C          4.48310       -3.19050       -3.31050
H          2.06120       -0.34900       -2.40030
H          1.46450        1.36100       -2.40350
H          0.42240        0.03550       -3.05000
H         -1.46030        0.73860       -1.25490
H         -0.34200        1.88810       -0.38390
H         -1.83560       -0.54890        0.67650
H         -1.18760        0.89920        1.58790
H         -0.43030       -1.22370        3.00260
H          1.34750       -1.07160        2.76230
H          0.45970       -2.49260        2.06660
H          5.06750       -0.42670        0.48810
H          2.49270        1.20080        0.78160
H          4.23660        1.69600        1.15930
H          6.20720       -3.19120        1.34960
H          6.88150       -2.10050        0.15370
H          7.12260       -3.92020        0.04830
H          3.92120       -5.02390        0.81490
H          5.13460       -5.65140       -0.34920
H          3.46900       -5.32920       -0.91400
H          6.77560       -1.10040       -1.70750
H          5.10170       -0.70840       -2.25050
H          6.37310       -1.22000       -3.42510
H          7.65950       -3.53460       -1.94720
H          7.10820       -3.66380       -3.60160
H          6.50460       -4.84530       -2.39120
H          3.57660       -2.56920       -3.18230
H          4.19730       -4.26370       -3.24320
H          4.89210       -3.02090       -4.33300
