48

C         -0.39570       -1.14510       -0.05520
N         -1.06940       -0.15240        0.57180
H         -1.92720       -0.24520        1.15750
C         -0.36440        0.96770        0.32730
Cl        -0.76290        2.55570        0.95430
C          0.71590        0.64280       -0.46470
Cl         1.92840        1.74390       -1.09490
N          0.69950       -0.68570       -0.68170
Cu        -0.94440       -3.14170        0.01670
Br        -2.36370       -2.73100       -2.11060
C          0.23380       -3.48260        1.78250
C          1.07440       -2.61660        2.34810
P         -1.29810       -5.49210        0.04420
N         -1.77460       -6.17440       -1.53910
C         -0.53080       -6.09800       -2.32350
C         -2.29780       -7.55330       -1.63160
O         -2.89040       -5.12210        0.39020
C         -3.13430       -5.04060        1.72390
C         -3.47760       -3.79290        2.29550
C         -3.62660       -3.65010        3.68250
C         -3.47460       -4.75030        4.52290
C         -3.20240       -5.99650        3.97870
C         -3.02910       -6.17340        2.58880
C         -2.70110       -7.56060        2.13870
C         -3.45060       -8.62630        2.69660
C         -3.17320       -9.95490        2.36820
C         -2.11500      -10.25700        1.52320
C         -1.35850       -9.22730        0.97960
C         -1.65340       -7.88890        1.24390
O         -0.87280       -7.01080        0.57390
H          1.38390       -1.24040       -1.24260
H          0.10120       -4.44050        2.27550
H          1.24450       -1.62620        1.95270
H          1.58730       -2.90850        3.26190
H         -0.19740       -5.03950       -2.40860
H         -0.65500       -6.49890       -3.34840
H          0.28640       -6.67150       -1.82200
H         -3.19780       -7.69670       -1.00010
H         -1.51290       -8.30370       -1.41020
H         -2.58670       -7.77340       -2.68240
H         -3.58260       -2.91830        1.67040
H         -3.84750       -2.68380        4.11730
H         -3.55880       -4.63560        5.59740
H         -3.08270       -6.82970        4.66510
H         -4.27480       -8.43470        3.37390
H         -3.77170      -10.75850        2.77970
H         -1.87960      -11.27900        1.27090
H         -0.53700       -9.47220        0.31520
