42

C         -0.17790       -1.27440       -0.01710
N         -1.09550       -0.22810        0.01370
C         -2.56130       -0.23960        0.00170
C         -0.36450        0.93250       -0.00180
C         -0.85750        2.37630       -0.00140
C          0.96550        0.60330       -0.02150
C          2.12140        1.57860       -0.02620
N          1.07520       -0.74570       -0.03130
C          2.33110       -1.47730       -0.00990
Cu        -0.49020       -3.48260       -0.01010
Br        -0.59420       -3.48790       -2.59800
C         -0.40380       -3.47830        2.13820
C         -0.27070       -2.38840        2.89850
N         -0.83480       -5.49640        0.02680
C         -0.18840       -6.34680       -0.83230
C          0.95930       -5.88380       -1.67840
C         -0.49020       -7.71380       -0.84130
C         -1.48620       -8.20220       -0.00500
C         -2.14160       -7.33370        0.86440
C         -1.77530       -5.98310        0.89640
H         -2.96310       -1.26790       -0.02420
H         -2.93360        0.31200       -0.89600
H         -2.95290        0.29780        0.89350
H         -1.95830        2.49330        0.01040
H         -0.46840        2.91610       -0.89700
H         -0.44890        2.91020        0.88700
H          1.79630        2.64140       -0.01800
H          2.74020        1.42540       -0.93430
H          2.73980        1.41530        0.87930
H          3.19520       -0.78020        0.05300
H          2.44020       -2.07410       -0.93410
H          2.35430       -2.11530        0.89410
H         -0.43590       -4.43590        2.64570
H         -0.18130       -1.39540        2.48710
H         -0.21160       -2.49150        3.97750
H          1.21230       -4.82920       -1.47320
H          0.72640       -6.06110       -2.75150
H          1.89120       -6.41720       -1.41030
H          0.05320       -8.39440       -1.48770
H         -1.74260       -9.25320       -0.02690
H         -2.93830       -7.70240        1.49670
H         -2.32170       -5.30900        1.54130
