86

P          1.09120        0.01400       -0.03860
C          0.13500       -1.73400       -0.25850
C         -1.41380       -1.82830       -0.34850
C          0.58660       -2.50030       -1.55260
C          0.46210       -2.67650        0.92140
C          0.63290        0.60150        1.81330
C          1.26080       -0.26890        2.92620
C          1.08950        2.03800        2.19190
C         -0.89410        0.68180        2.09480
C          0.32830        1.05170       -1.52360
C         -1.23100        1.14160       -1.43810
C          0.85200        2.49680       -1.47310
C          0.61510        0.60790       -2.98280
Cu         3.55120        0.01400       -0.03860
Br         3.55120        2.56310        0.41970
C          3.55120       -2.10210       -0.41910
C          3.46710       -3.29900        0.19110
C          5.70120        0.01400       -0.03860
N          6.57350       -1.10170        0.00210
C          6.22220       -2.52320        0.11340
C          7.22350       -3.59980        0.57160
C          6.55940       -4.98320        0.64120
C          7.50690       -6.00930        1.26970
C          7.85430       -0.61700        0.02780
C          7.81570        0.73710       -0.01180
C          9.01120        1.51230        0.00890
C         10.23290        0.86810        0.04000
C         10.30060       -0.51670        0.08640
C          9.11620       -1.25730        0.06720
N          6.53060        1.18270       -0.06770
C          6.39360        2.67540       -0.15760
C          6.39560        3.35300        1.26380
C          7.43090        4.37940        1.82240
C          7.70410        4.02500        3.30000
H         -1.83700       -1.46360       -1.28020
H         -1.96690       -1.43840        0.50420
H         -1.71480       -2.90330       -0.38050
H          0.23650       -2.06490       -2.47990
H          0.14850       -3.52240       -1.59420
H          1.64160       -2.67650       -1.69470
H         -0.19490       -2.48830        1.78430
H          1.48270       -2.57100        1.26830
H          0.26950       -3.74790        0.67790
H          2.36330       -0.29440        2.82890
H          0.87960       -1.28220        3.00940
H          1.01590        0.15950        3.92700
H          2.16090        2.08890        2.40470
H          0.67890        2.35360        3.17810
H          0.72890        2.82310        1.51390
H         -1.40370       -0.27610        2.02940
H         -1.39490        1.47950        1.51830
H         -1.09780        0.99590        3.14260
H         -1.63740        1.08460       -0.43270
H         -1.73750        0.36850       -2.03120
H         -1.64210        2.05800       -1.90850
H          0.67580        2.98250       -0.51380
H          0.32450        3.13850       -2.21650
H          1.92210        2.53040       -1.74780
H          0.07060       -0.28510       -3.30030
H          1.69410        0.51690       -3.20200
H          0.17870        1.35550       -3.68860
H          3.68170       -2.19460       -1.49390
H          3.39240       -3.45290        1.25610
H          3.52780       -4.18420       -0.44800
H          5.83080       -2.85420       -0.87220
H          5.54860       -2.54070        0.97870
H          7.59860       -3.31590        1.58170
H          8.02340       -3.76440       -0.16290
H          6.30540       -5.30730       -0.39350
H          5.62590       -4.96640        1.24240
H          8.47440       -6.03660        0.72190
H          7.04740       -7.02030        1.23200
H          7.69630       -5.74280        2.32820
H          9.03050        2.58850       -0.01310
H         11.16030        1.44510        0.04280
H         11.26120       -1.01670        0.10350
H          9.29950       -2.30410        0.09600
H          5.61970        2.97530       -0.88790
H          7.17430        3.11940       -0.81380
H          6.35970        2.49140        1.95180
H          5.44940        3.89110        1.41790
H          6.97830        5.40240        1.80980
H          8.40160        4.44520        1.29060
H          6.74940        3.84940        3.84660
H          8.26500        4.81450        3.84150
H          8.29710        3.08410        3.33900
