70

C          1.02400       -0.65300       -0.05500
N          0.99810        0.65160       -0.37400
C          2.05330        1.68420       -0.75190
C          1.76100        2.91630       -1.48120
C          0.50330        3.21060       -2.24790
C          2.69020        3.99560       -1.55130
C          3.95310        3.92560       -0.96850
C          4.94320        5.05740       -0.91460
C          4.30890        2.76130       -0.38290
C          3.42210        1.68460       -0.27670
C          3.99590        0.65330        0.50010
C         -0.31120        1.11410        0.02180
C         -1.14740       -0.13530        0.21260
N         -0.21600       -1.19950        0.52340
C         -0.67360       -2.56560        0.96900
C          0.04530       -3.82370        0.78610
C          1.42620       -3.99920        0.28720
C         -0.51500       -5.07840        1.13320
C         -1.73460       -5.18980        1.74750
C         -2.29460       -6.54630        2.11810
C         -2.42030       -4.03380        2.04750
C         -1.93780       -2.75000        1.69080
C         -2.83060       -1.64750        2.18810
Cu         2.78020       -1.86970       -0.29550
Br         3.39850       -1.46800        2.18730
C          2.26690       -2.20320       -2.35650
C          1.14130       -1.75010       -2.91890
N          4.49560       -3.05820       -0.53040
C          4.67200       -3.93710       -1.57590
C          5.74460       -4.83820       -1.60850
C          6.73890       -4.77120       -0.63700
C          7.90850       -5.70650       -0.63460
C          6.61900       -3.82610        0.36690
C          5.47650       -3.03510        0.43390
H         -0.13770        2.33950       -2.41990
H          0.80560        3.50250       -3.27780
H         -0.02860        4.06910       -1.78700
H          2.43710        4.92090       -2.05670
H          4.57430        5.97140       -1.40750
H          5.91200        4.74360       -1.36630
H          5.14670        5.29560        0.15980
H          5.30750        2.71940        0.06140
H          5.05010        0.76350        0.84430
H          3.98960       -0.24750       -0.11980
H          3.36400        0.80010        1.39280
H         -0.86870        1.78350       -0.63650
H         -0.17680        1.63800        0.99620
H         -1.64640       -0.41620       -0.74410
H         -1.87620        0.17040        0.95750
H          2.01810       -3.26390        0.79060
H          1.49920       -4.29430       -0.77930
H          1.91650       -4.83720        0.83730
H          0.03210       -5.99870        0.94300
H         -1.62710       -7.37240        1.77640
H         -3.28500       -6.70040        1.64480
H         -2.39570       -6.62740        3.21670
H         -3.36080       -4.14650        2.57590
H         -3.61040       -2.00560        2.89600
H         -3.39680       -1.18760        1.35550
H         -2.22280       -0.93560        2.78790
H          2.91960       -2.65640       -3.07320
H          0.38020       -1.21290       -2.37770
H          0.97140       -1.90920       -3.98030
H          3.93310       -4.13460       -2.31230
H          5.78540       -5.59460       -2.38300
H          7.77510       -6.52360       -1.37350
H          8.00870       -6.16690        0.37250
H          8.83640       -5.14550       -0.86820
H          7.38900       -3.72080        1.12240
H          5.48170       -2.33990        1.23600
