63

C          2.32700        0.03400        0.00000
N          1.55470        1.16290        0.02300
C          2.07530        2.53740       -0.01640
C          1.56140        3.27380       -1.26720
C          1.73610        3.30690        1.26140
C          0.28090        0.71440        0.02500
C          0.27800       -0.65100       -0.02160
C         -0.90440       -1.39770       -0.01560
C         -2.12250       -0.71250        0.00250
C         -2.14130        0.69470        0.02540
C         -0.93440        1.42250        0.04460
N          1.55030       -1.09400       -0.02810
C          1.91450       -2.52980        0.06300
C          1.84770       -3.19920       -1.28390
C          2.82980       -2.85920       -2.20810
C          2.84590       -3.41240       -3.48360
C          1.86580       -4.33290       -3.85310
C          0.87950       -4.70790       -2.93390
C          0.86860       -4.14920       -1.64390
Cu         4.47690        0.05800        0.00140
Br         4.47730        0.17520       -2.58590
C          4.47650       -0.03920        2.14920
C          3.37750       -0.00990        2.90830
N          6.57670        0.08150        0.00280
C          7.18100       -0.68360        0.95230
C          8.55810       -0.73120        1.10300
C          9.38910        0.11720        0.35050
N         10.82240        0.17520        0.61410
C         11.53680       -0.81680        1.41840
C         11.66470        1.27160        0.15560
C          8.74040        0.91470       -0.63420
C          7.34130        0.82750       -0.84090
H          3.18360        2.49620       -0.08840
H          0.46360        3.40360       -1.25940
H          1.83300        2.70700       -2.18080
H          2.01060        4.28590       -1.32780
H          0.64290        3.41130        1.40930
H          2.17870        4.32560        1.21120
H          2.17000        2.78700        2.14250
H         -0.89860       -2.47910       -0.02990
H         -3.05230       -1.26740        0.00010
H         -3.09080        1.21320        0.03790
H         -0.98530        2.50160        0.07620
H          1.22620       -3.02120        0.78760
H          2.93230       -2.65520        0.49230
H          3.59390       -2.17190       -1.91090
H          3.62280       -3.12320       -4.17740
H          1.88100       -4.75710       -4.84870
H          0.12720       -5.42870       -3.22790
H          0.09510       -4.45420       -0.95040
H          5.40520       -0.10310        2.69620
H          2.38130        0.05860        2.50130
H          3.47460       -0.06180        3.98890
H          6.59490       -1.36640        1.54680
H          8.91660       -1.41680        1.85020
H         10.93850       -1.67900        1.74960
H         11.96360       -0.33400        2.32490
H         12.37310       -1.24590        0.82650
H         11.12940        2.06180       -0.38960
H         12.47890        0.87840       -0.49040
H         12.12960        1.76650        1.03770
H          9.27780        1.61640       -1.24950
H          6.87010        1.48140       -1.56200
