33

C         -0.19430       -1.24780        0.00850
N          0.41780       -0.36770       -0.86240
C          1.15980       -0.53870       -2.12570
C          0.27080        0.87860       -0.33220
Cl         0.87470        2.41000       -0.97880
C         -0.45230        0.79720        0.81140
Cl        -0.97050        2.17990        1.79120
N         -0.74940       -0.49560        1.04400
C         -1.59630       -0.91240        2.15410
Cu        -0.49020       -3.48260       -0.01010
Br         1.63520       -3.78980        1.43790
C         -2.25450       -3.22770       -1.21200
C         -2.72430       -2.02670       -1.56470
N         -0.77990       -5.58280       -0.13420
C         -0.32150       -6.44720        0.88110
F          0.24070       -6.00980        2.02550
C         -0.53270       -7.83690        0.81040
C         -1.15700       -8.38990       -0.29460
C         -1.61420       -7.54730       -1.28760
C         -1.44890       -6.16400       -1.16260
H          1.15730       -1.57920       -2.47970
H          2.21580       -0.18630       -1.99910
H          0.72870        0.11490       -2.92320
H         -1.82200       -0.05630        2.82990
H         -1.08210       -1.67970        2.75130
H         -2.59250       -1.23430        1.77930
H         -2.85260       -4.01080       -1.63230
H         -2.24630       -1.10320       -1.29420
H         -3.60490       -1.95340       -2.19800
H         -0.21830       -8.49030        1.61670
H         -1.29470       -9.46280       -0.38010
H         -2.09960       -7.96140       -2.16310
H         -1.80500       -5.62310       -2.00570
