67

C          1.02400       -0.65300       -0.05500
N          1.02750        0.66760       -0.12110
C          2.14880        1.64300       -0.26800
C          3.41520        1.37380       -0.91260
C          3.75720        0.13300       -1.68560
C          4.45800        2.32230       -0.94320
C          4.30390        3.58540       -0.37970
C          5.40840        4.62100       -0.38720
C          3.10140        3.91840        0.18380
C          2.02510        3.00940        0.25230
C          0.80990        3.62260        0.91960
C         -0.33840        1.09840        0.06270
C         -1.18110       -0.13580       -0.13220
N         -0.28470       -1.21100        0.14340
C         -0.66880       -2.59700        0.40760
C         -1.89650       -3.17760       -0.10190
C         -3.00440       -2.49680       -0.88390
C         -2.17020       -4.53840        0.11080
C         -1.33010       -5.35610        0.85700
C         -1.63930       -6.80600        1.06710
C         -0.20530       -4.80530        1.43610
C          0.13480       -3.45880        1.24290
C          1.32400       -3.00400        2.02740
Cu         2.78020       -1.86970       -0.29550
Br         1.60710       -2.86390       -2.27320
C          3.66900       -0.94450        1.42940
C          3.07310       -0.06840        2.24180
N          4.49560       -3.05820       -0.53040
C          4.88500       -3.53410       -1.75630
F          4.28630       -3.11460       -2.89190
C          5.99440       -4.37670       -1.88040
C          6.66570       -4.80240       -0.74000
C          6.25260       -4.34540        0.50390
C          5.19120       -3.44410        0.58600
H          2.88670       -0.49840       -1.85060
H          4.61030       -0.40020       -1.21320
H          4.07800        0.42910       -2.71030
H          5.40630        2.09300       -1.41610
H          6.33290        4.25490       -0.87750
H          5.65690        4.90690        0.65900
H          5.06440        5.53560       -0.91950
H          3.00520        4.92070        0.58600
H          0.95450        4.68520        1.20930
H          0.57820        3.09800        1.86380
H         -0.04300        3.67110        0.21960
H         -0.66020        1.84800       -0.69280
H         -0.46780        1.42810        1.10890
H         -1.41450       -0.17390       -1.21750
H         -2.06320       -0.08650        0.54600
H         -3.02060       -1.41870       -0.98200
H         -3.96940       -2.69600       -0.36310
H         -3.05900       -2.92310       -1.90360
H         -3.07220       -4.97470       -0.29980
H         -2.57390       -7.10310        0.54750
H         -1.75510       -7.01200        2.15270
H         -0.80530       -7.42060        0.66650
H          0.41540       -5.44770        2.05480
H          1.75630       -3.79610        2.67830
H          1.05660       -2.15250        2.68870
H          2.11910       -2.77900        1.35130
H          4.70560       -1.13750        1.66240
H          2.04780        0.23940        2.12680
H          3.63620        0.36690        3.06130
H          6.32570       -4.70460       -2.85720
H          7.49760       -5.48960       -0.81830
H          6.73530       -4.70160        1.40550
H          4.86160       -3.18300        1.57490
