55

C          2.32700        0.03400        0.00000
N          1.53410        1.15750        0.02650
C          1.93340        2.56850        0.10260
C          2.71810        3.05490       -1.11520
C          1.94770        2.92840       -2.43850
C          2.77310        3.51920       -3.58200
C          0.25420        0.70360        0.04440
C          0.26290       -0.65400        0.01240
C         -0.92390       -1.40940        0.00590
C         -2.14300       -0.73230        0.03740
C         -2.16700        0.67290        0.07510
C         -0.96440        1.41020        0.08230
N          1.53380       -1.10050       -0.03980
C          1.76960       -2.54650       -0.24130
C          3.07180       -2.88650       -0.86620
C          4.20450       -3.02680       -0.06310
C          5.43170       -3.35910       -0.64000
C          5.53160       -3.54940       -2.02480
C          4.39830       -3.42780       -2.83200
C          3.16830       -3.10510       -2.25740
Cu         4.47690        0.05800        0.00140
Br         4.47820        0.09320       -2.58830
C          4.47580        0.02890        2.15120
C          3.38330        0.04010        2.91970
O          6.52670        0.08100        0.00280
C          7.27220        0.36490       -1.05370
N          8.58860        0.31760       -0.78110
C          8.64730       -0.01990        0.51330
C          7.36770       -0.17040        0.99280
H          2.54280        2.71930        1.01750
H          1.04040        3.21850        0.20010
H          3.67480        2.50160       -1.17770
H          2.94610        4.13010       -0.94430
H          0.98010        3.47480       -2.37980
H          1.73670        1.85890       -2.65470
H          2.95880        4.60050       -3.40210
H          2.23190        3.41030       -4.54490
H          3.75040        2.99770       -3.66220
H         -0.92460       -2.49290       -0.02390
H         -3.07120       -1.29490        0.02810
H         -3.12230        1.18290        0.09650
H         -1.01430        2.48650        0.10620
H          1.03400       -2.87700       -1.00750
H          1.52080       -3.15590        0.65220
H          4.12540       -2.89250        1.00910
H          6.30220       -3.47060       -0.01010
H          6.48460       -3.79170       -2.46900
H          4.47010       -3.57750       -3.90330
H          2.29970       -3.01560       -2.89880
H          5.38070        0.01200        2.71680
H          2.37920        0.05840        2.52760
H          3.50250        0.02580        4.00120
H          6.92250        0.62780       -2.03190
H          9.56580       -0.15150        1.06930
H          7.17420       -0.46100        2.00230
