95

P          0.98380        0.02400       -0.09570
C          0.01340       -1.09430       -1.45400
C         -1.52990       -1.08140       -1.56320
C          0.46390       -0.74910       -2.92170
C          0.34130       -2.61080       -1.31090
C          0.56640       -0.89190        1.62510
C          1.21630       -2.28550        1.78720
C          1.04510       -0.12040        2.87770
C         -0.95030       -1.07780        1.91410
C          0.19100        1.79590       -0.42440
C         -1.36110        1.81810       -0.21930
C          0.75020        2.82690        0.56800
C          0.40780        2.44950       -1.82040
Cu         3.44380        0.02400       -0.09570
Br         3.44380        1.54220        2.00260
C          3.44380       -1.23630       -1.83760
C          3.97410       -0.84480       -2.99810
P          5.90380        0.02400       -0.09570
N          6.71880       -1.55740       -0.49460
C          6.34990       -2.55300        0.57550
C          4.82940       -2.78570        0.65640
C          6.95670       -3.96890        0.36670
C          8.15610       -1.50850       -0.78240
C          8.67930       -0.14030       -0.54900
C         10.21780       -0.11960       -0.75660
C          7.96220        0.82690       -1.55970
N          6.43780        0.77200       -1.62180
C          5.97360        2.21750       -1.64340
C          6.54830        3.04580       -2.81380
C          4.44360        2.43210       -1.66030
N          7.02680        0.61040        1.25670
C          7.18040        2.07310        1.74120
C          5.96940        2.94200        2.04620
C          7.98500        2.14120        3.08710
C          8.41280        0.20530        0.93050
H         -1.93690       -0.17860       -2.00680
H         -2.07160       -1.35520       -0.66120
H         -1.85970       -1.83860       -2.31410
H          0.12100        0.21100       -3.29650
H          0.01660       -1.45210       -3.66560
H          1.51060       -0.77820       -3.12320
H         -0.27510       -3.07470       -0.52890
H          1.38830       -2.85470       -1.12910
H          0.04690       -3.18730       -2.22040
H          2.30460       -2.22000        1.66950
H          0.83820       -3.07450        1.14590
H          1.01850       -2.68470        2.81010
H          2.11940       -0.25630        3.04650
H          0.64310       -0.56100        3.81960
H          0.70830        0.92360        2.90160
H         -1.45330       -1.73350        1.20900
H         -1.47970       -0.12590        2.08000
H         -1.10600       -1.59640        2.88600
H         -1.71660        1.19730        0.59770
H         -1.93940        1.56710       -1.11370
H         -1.75010        2.83750       -0.02140
H          0.57830        2.54270        1.61230
H          0.23350        3.80830        0.44970
H          1.81910        3.01880        0.36840
H         -0.21540        2.01430       -2.60660
H          1.47380        2.48960       -2.11160
H          0.00620        3.48610       -1.81830
H          3.17600       -2.26960       -1.79290
H          4.36020        0.14230       -3.14420
H          4.03430       -1.53640       -3.83170
H          6.68660       -2.18100        1.56540
H          4.46090       -3.24510       -0.28090
H          4.28770       -1.85220        0.86110
H          4.57980       -3.47660        1.49000
H          6.66450       -4.38030       -0.62050
H          6.58780       -4.65870        1.15840
H          8.05800       -4.01570        0.45880
H          8.32410       -1.84740       -1.82130
H          8.74340       -2.16950       -0.11160
H         10.50140       -0.43670       -1.78740
H         10.71550       -0.79720       -0.01920
H         10.61820        0.90240       -0.57920
H          8.32890        0.61660       -2.58790
H          8.35140        1.81450       -1.26030
H          6.33190        2.71990       -0.72440
H          6.21300        2.62970       -3.79570
H          7.65670        3.09960       -2.81640
H          6.21080        4.09900       -2.73110
H          3.98140        2.12950       -2.61350
H          4.22550        3.51850       -1.54610
H          3.94150        1.94880       -0.81830
H          7.72860        2.65800        0.97380
H          5.48660        2.58340        2.98130
H          5.31900        3.07370        1.16870
H          6.28130        3.97680        2.30930
H          7.47490        1.55000        3.87870
H          8.08040        3.18630        3.45340
H          9.03120        1.78500        3.04060
H          8.72460       -0.61360        1.62300
H          9.15580        0.99590        1.13800
