40

N         -1.37680       -0.09130       -0.05910
C         -0.60960       -1.21550        0.25030
C          0.71750       -1.05250        0.67540
Cl         1.59070       -2.40560        1.42810
C          1.31160        0.09980        0.51670
C          0.62970        1.16250       -0.08560
C         -0.77410        1.09910       -0.23460
Cu        -3.45630       -0.21260       -0.27740
Br        -3.27280        0.62930       -2.71900
C         -3.67690       -0.91250        1.73550
C         -2.55890       -1.06810        2.50970
N         -5.56050       -0.28020       -0.50590
C         -6.27510        0.81880       -0.66020
C         -7.58750        0.77880       -0.80340
C         -8.26110       -0.36070       -0.80940
C         -7.62380       -1.51160       -0.66960
C         -8.27730       -2.73610       -0.67570
C         -7.47540       -3.85090       -1.00470
C         -6.16170       -3.83740       -0.59330
C         -5.40570       -5.13990       -0.40940
O         -4.19770       -5.12630       -0.02840
C         -6.10170       -6.46330       -0.68110
C         -5.56280       -2.69870       -0.35640
C         -6.22490       -1.51050       -0.50870
H         -1.01610       -2.16460        0.17320
H          2.28660        0.22230        0.83590
H          1.15160        1.99140       -0.41760
H         -1.31800        1.94780       -0.46900
H         -4.60120       -1.10330        2.13270
H         -1.62260       -0.86230        2.12280
H         -2.64820       -1.40250        3.48430
H         -5.79680        1.73240       -0.66110
H         -8.10400        1.66460       -0.91440
H         -9.28650       -0.35030       -0.92610
H         -9.28510       -2.82580       -0.45660
H         -7.86000       -4.65210       -1.53370
H         -7.11070       -6.28270       -0.99030
H         -6.10500       -7.05670        0.21070
H         -5.58150       -6.98840       -1.45650
H         -4.57610       -2.69880       -0.05430
