83

N         -0.65900       -1.22800       -0.05100
C         -1.19960       -0.04080       -0.48410
F         -2.42710        0.00110       -1.03320
C         -0.50840        1.17100       -0.33740
C          0.74120        1.18210        0.26990
C          1.23960        0.00350        0.80050
C          0.49940       -1.17250        0.67190
Cu        -1.57560       -3.10440       -0.27260
Br        -1.51890       -3.53440        2.18840
C         -1.57840       -2.63940       -2.37410
C         -1.09770       -1.56760       -3.04000
C         -2.51410       -5.02540       -0.49940
N         -1.77080       -6.23450       -0.27330
C         -0.30970       -6.69530        0.03600
C          0.85200       -5.80350        0.20670
C          0.91440       -4.40530       -0.33990
C          2.26160       -3.63530       -0.17400
C          0.69240       -4.53660       -1.84990
C          2.07570       -6.25780        0.77490
C          2.30740       -7.55040        1.08650
C          1.37740       -8.46930        0.74090
C          0.12090       -8.12850        0.16890
C         -0.56920       -9.41610       -0.33810
C          0.33780      -10.21490       -1.32870
C         -0.96360      -10.33590        0.82930
C         -2.76850       -7.13670       -0.20500
C         -3.99480       -6.58380       -0.40870
N         -3.94180       -5.25680       -0.59580
C         -5.25140       -4.40470       -0.70190
C         -6.61310       -4.72030       -0.16470
C         -7.15190       -5.98640        0.48890
C         -7.40830       -7.10090       -0.55910
C         -6.43970       -6.29970        1.78630
C         -7.69550       -3.78470       -0.27690
C         -7.59170       -2.59560       -0.92780
C         -6.44570       -2.33960       -1.58530
C         -5.33890       -3.21580       -1.51880
C         -4.47950       -3.12740       -2.69060
C         -5.14720       -3.98840       -3.78020
C         -4.16020       -1.69320       -3.18750
H         -0.93730        2.09800       -0.69540
H          1.30460        2.10230        0.36370
H          2.19470       -0.00560        1.31140
H          0.89100       -2.04770        1.13120
H         -1.89660       -3.38980       -3.07760
H         -0.61960       -0.69840       -2.64850
H         -1.16580       -1.56290       -4.13450
H          0.17030       -3.84830        0.17350
H          3.10400       -4.16230       -0.66890
H          2.51350       -3.49190        0.90160
H          2.21180       -2.63540       -0.65020
H          1.50840       -5.13990       -2.30080
H          0.72360       -3.54740       -2.33540
H         -0.26580       -5.04240       -2.08460
H          2.93390       -5.63640        0.97060
H          3.26480       -7.85360        1.50130
H          1.69520       -9.48890        0.90560
H         -1.42560       -9.19220       -0.97730
H          1.29590      -10.56830       -0.88860
H          0.59910       -9.59810       -2.21460
H         -0.17770      -11.13330       -1.68030
H         -0.07440      -10.83440        1.27740
H         -1.64340      -11.13270        0.46530
H         -1.47310       -9.75590        1.62470
H         -2.70880       -8.16100        0.06120
H         -4.84530       -7.19410       -0.34380
H         -8.19980       -5.83970        0.85330
H         -6.58680       -7.37640       -1.23100
H         -8.18390       -6.75330       -1.27950
H         -7.79780       -8.01390       -0.06480
H         -5.38390       -6.55090        1.66330
H         -6.97030       -7.12390        2.30380
H         -6.50290       -5.38970        2.42630
H         -8.69350       -3.97010        0.10560
H         -8.44010       -1.92500       -1.03000
H         -6.48670       -1.47530       -2.23200
H         -3.64820       -3.72080       -2.40980
H         -6.14620       -3.58120       -4.04860
H         -5.31170       -5.02410       -3.39560
H         -4.51570       -4.06010       -4.68470
H         -4.96890       -1.39750       -3.88840
H         -4.48790       -0.75310       -2.69660
H         -3.64180       -1.35370       -2.28910
