85

N         -1.39000       -0.11200       -0.05400
C         -0.59370        0.11010       -1.14160
C          0.80780        0.04080       -1.02240
C          1.38350       -0.18170        0.23130
Cl         3.12380       -0.30750        0.42070
C          0.56140       -0.29870        1.34360
C         -0.82030       -0.27780        1.17180
Cu        -3.47560       -0.20170       -0.28210
Br        -3.46600       -2.64080        0.58910
C         -3.48370        1.82300       -1.00520
C         -4.13440        1.51400       -2.22750
C         -5.61100       -0.29360       -0.51560
N         -6.25400        0.98600       -0.80610
C         -6.07730        2.68550       -0.94950
C         -5.00910        3.85030       -1.70920
C         -3.51730        3.99550       -2.56370
C         -3.42570        4.11610       -4.13120
C         -2.44770        4.83730       -1.76930
C         -5.36660        5.21000       -1.62660
C         -6.36220        5.74280       -0.93550
C         -7.14120        4.95080       -0.20500
C         -7.05170        3.53380       -0.17260
C         -8.04670        3.11410        0.91360
C         -9.44030        2.89100        0.29250
C         -7.35830        2.21100        1.92760
C         -7.67040        0.55240       -0.82660
C         -7.78080       -0.94850       -0.78280
N         -6.59400       -1.34410       -0.12100
C         -6.53820       -2.62470        0.61080
C         -7.16070       -3.87090        0.02800
C         -8.32250       -4.07770       -0.98280
C         -7.96430       -4.52260       -2.39070
C         -9.32100       -5.10710       -0.34660
C         -6.57710       -5.10090        0.42030
C         -5.68710       -5.21420        1.46810
C         -5.37200       -4.10190        2.22270
C         -5.79460       -2.77570        1.89940
C         -4.96730       -1.59950        2.67430
C         -5.32440       -0.19630        3.09640
C         -3.60460       -1.93650        3.42150
H         -1.03700        0.24850       -2.11780
H          1.44030        0.13950       -1.89400
H          0.98290       -0.41160        2.33570
H         -1.42170       -0.30590        2.03980
H         -2.73600        2.56190       -0.84170
H         -4.49630        0.51410       -2.34330
H         -4.34260        1.94360       -3.17440
H         -2.79660        3.18310       -2.69570
H         -3.85340        5.02220       -4.56070
H         -3.87160        3.24100       -4.66340
H         -2.35000        4.03720       -4.47660
H         -2.44200        5.91460       -1.98400
H         -1.39780        4.46080       -1.93020
H         -2.59270        4.70040       -0.67180
H         -4.76220        5.97060       -2.11340
H         -6.48490        6.81790       -0.91280
H         -7.87000        5.51440        0.37640
H         -8.32050        3.92280        1.64300
H         -9.43870        2.33960       -0.65470
H         -9.84210        3.88210       -0.01620
H        -10.14640        2.43660        1.01360
H         -6.76360        1.49170        1.39980
H         -8.05460        1.72850        2.64360
H         -6.58060        2.77450        2.49320
H         -8.22260        0.92760       -1.71080
H         -8.18650        0.80530        0.09770
H         -7.76750       -1.34800       -1.81830
H         -8.70960       -1.24030       -0.22740
H         -8.90930       -3.15680       -1.05940
H         -7.38910       -5.47250       -2.39840
H         -7.39910       -3.73270       -2.91470
H         -8.90480       -4.70330       -2.96530
H         -8.92990       -6.14950       -0.33740
H        -10.27480       -5.16670       -0.90300
H         -9.55440       -4.85080        0.71270
H         -6.82760       -6.02730       -0.07650
H         -5.25070       -6.18460        1.63630
H         -4.66290       -4.32810        2.98430
H         -4.75120       -1.09470        1.74160
H         -5.38620       -0.12310        4.18380
H         -6.26690        0.04270        2.63560
H         -4.49210        0.53680        2.79540
H         -3.48490       -2.90560        3.93460
H         -2.77290       -1.47230        2.89060
H         -2.64000       -1.98380        2.86580
