37

N         -1.44740       -0.02540       -0.03910
C         -0.71040        0.93070       -0.69150
C          0.69540        0.90150       -0.62700
C          1.34030       -0.06670        0.14690
Cl         3.09800       -0.16350        0.17990
C          0.57620       -0.97530        0.87530
C         -0.82210       -0.94830        0.74750
Cu        -3.47560       -0.20170       -0.28210
Br        -3.76780        1.33250        1.78410
C         -3.23310       -1.47530       -1.99720
C         -2.05720       -1.82950       -2.52590
N         -5.50080       -0.31930       -0.53250
C         -6.13300       -1.52490       -0.78210
N         -5.45190       -2.80210       -0.59200
C         -5.85310       -4.03160       -1.26250
C         -4.38000       -2.98320        0.37780
C         -7.53360       -1.52000       -1.00770
C         -8.23710       -0.31750       -1.05600
C         -7.57720        0.87680       -0.80860
C         -6.21190        0.85780       -0.50500
H         -1.20010        1.66790       -1.30430
H          1.28760        1.60990       -1.19250
H          1.06760       -1.70820        1.50940
H         -1.39920       -1.68340        1.29580
H         -4.11920       -1.86920       -2.47790
H         -1.11040       -1.51560       -2.11110
H         -2.03430       -2.48300       -3.39540
H         -6.61940       -3.86410       -2.03990
H         -6.18710       -4.78910       -0.51790
H         -4.97240       -4.47150       -1.78470
H         -4.05330       -2.04680        0.86100
H         -3.51100       -3.47170       -0.11400
H         -4.73050       -3.66880        1.18520
H         -8.10890       -2.42940       -1.10950
H         -9.30270       -0.31260       -1.26180
H         -8.12790        1.81180       -0.86040
H         -5.71540        1.80050       -0.32610
