33

N         -1.48160        0.00040       -0.00840
C         -0.99440        0.87270        0.92280
C          0.37380        1.18770        0.94390
C          1.24800        0.55480        0.04520
C          2.71010        0.90000       -0.00160
C          0.73250       -0.38410       -0.85300
C         -0.64440       -0.61200       -0.89130
Cu        -3.47560       -0.20170       -0.28210
Br        -3.31300        1.32320       -2.36920
C         -3.61060       -1.46760        1.45050
C         -2.62760       -1.68960        2.32480
N         -5.51070       -0.48980       -0.72600
C         -5.64110       -0.82130       -2.15600
N         -6.32940       -1.27290        0.07000
C         -7.49840       -0.74730        0.21650
C         -7.51140        0.54090       -0.26740
C         -6.23060        0.73990       -0.74880
H         -1.67790        1.39800        1.57670
H          0.74200        1.94080        1.63000
H          2.96330        1.71390        0.70910
H          2.96580        1.25700       -1.02370
H          3.33140        0.01120        0.22900
H          1.38490       -0.89970       -1.54920
H         -1.05340       -1.30210       -1.61870
H         -4.53130       -2.01640        1.60300
H         -1.64980       -1.24640        2.22940
H         -2.79170       -2.38600        3.14200
H         -5.09720       -1.75400       -2.38610
H         -5.33180       -0.04280       -2.87470
H         -6.71030       -0.98900       -2.44600
H         -8.32880       -1.23410        0.71180
H         -8.31800        1.26560       -0.23360
H         -5.88490        1.68600       -1.15450
