41

N         -0.65900       -1.22800       -0.05100
C         -1.19830       -0.24400        0.73140
C         -2.40120       -0.51740        1.57040
C         -0.55340        1.00030        0.82190
C          0.62560        1.21790        0.11050
C          1.17630        0.18890       -0.65160
C          0.51620       -1.03510       -0.70830
Cu        -1.57560       -3.10440       -0.27260
Br        -0.11350       -4.04530        1.64700
C         -2.78940       -2.32330       -1.86610
C         -2.77010       -1.04840       -2.26100
P         -2.64940       -5.30240       -0.53210
N         -1.95850       -6.94160       -0.63840
C         -0.88540       -7.27780        0.30450
C         -2.74730       -8.05740       -1.13720
O         -3.02880       -5.60400        1.10110
C         -4.20930       -4.90990        1.43080
O         -3.35500       -5.23750       -2.07900
C         -2.27090       -5.23990       -3.02280
H         -2.75310       -1.56050        1.43350
H         -3.21530        0.19440        1.33620
H         -2.11300       -0.39760        2.64080
H         -0.94910        1.78490        1.45360
H          1.13060        2.17400        0.16840
H          2.08730        0.34820       -1.21320
H          0.92370       -1.83920       -1.31550
H         -3.48200       -2.95210       -2.39630
H         -2.12710       -0.30720       -1.81400
H         -3.42030       -0.73060       -3.07090
H         -0.21940       -6.40980        0.46140
H         -0.21720       -8.05070       -0.13450
H         -1.30030       -7.63600        1.26340
H         -3.26150       -7.77380       -2.08060
H         -3.46530       -8.39460       -0.36890
H         -2.06390       -8.88940       -1.41050
H         -4.85140       -5.57830        2.04160
H         -4.84290       -4.60000        0.56590
H         -3.94690       -4.01600        2.03250
H         -2.40090       -6.05830       -3.75590
H         -1.23830       -5.38220       -2.60750
H         -2.21310       -4.28510       -3.58330
