86

N         -0.65900       -1.22800       -0.05100
C         -0.39010       -0.62490        1.17520
C         -0.57570       -1.29340        2.50180
C          0.19630        0.64750        1.23910
C          0.47260        1.32140        0.06240
C          0.24130        0.72990       -1.14530
C         -0.28810       -0.56510       -1.18290
Cu        -1.57560       -3.10440       -0.27260
Br         0.50400       -3.91750       -1.39020
C         -2.95290       -1.57070        0.10350
C         -4.13790       -1.95040        0.06070
C         -2.51410       -5.02540       -0.49940
N         -1.74420       -6.19340       -0.31340
C         -0.35180       -6.62570        0.18690
C          0.51600       -5.87920        1.15120
C          0.35910       -4.48940        1.74130
C          0.17470       -4.54840        3.28450
C          1.65580       -3.64730        1.41970
C          1.73930       -6.42630        1.63510
C          2.19010       -7.63680        1.25890
C          1.49100       -8.34880        0.37980
C          0.24940       -7.93560       -0.18810
C         -0.20740       -9.01590       -1.17550
C         -0.77620      -10.25850       -0.45040
C         -0.93330       -8.58260       -2.44850
C         -2.67960       -7.16180       -0.47740
C         -3.89440       -6.64430       -0.86520
N         -3.86870       -5.29680       -0.90320
C         -5.08300       -4.47550       -1.42620
C         -6.51280       -4.76030       -1.09350
C         -7.20520       -6.09820       -0.77160
C         -7.89430       -6.15800        0.59470
C         -8.23670       -6.38230       -1.91630
C         -7.49230       -3.72960       -1.15080
C         -7.24830       -2.49900       -1.66130
C         -6.06860       -2.30070       -2.29830
C         -4.99320       -3.24530       -2.27090
C         -3.90020       -2.73620       -3.22160
C         -2.52440       -3.39780       -3.24430
C         -4.53180       -2.66550       -4.66650
H         -1.05030       -2.27590        2.40900
H         -1.16880       -0.67160        3.19620
H          0.43800       -1.40160        2.96670
H          0.42410        1.10540        2.19470
H          0.92170        2.32440        0.13620
H          0.49540        1.25850       -2.05330
H         -0.48420       -1.01990       -2.15940
H         -2.80420       -0.48640        0.16220
H         -4.07850       -2.96770       -0.09030
H         -4.95720       -1.25410       -0.01690
H         -0.52260       -4.03880        1.28260
H          0.96960       -5.13900        3.78550
H         -0.79590       -5.00820        3.54710
H          0.24460       -3.54820        3.75430
H          2.48640       -3.82160        2.12860
H          1.48730       -2.56070        1.37200
H          2.14120       -3.93760        0.47050
H          2.39870       -5.95430        2.34190
H          3.14150       -7.99580        1.65320
H          1.95500       -9.32570        0.08830
H          0.72950       -9.37440       -1.66870
H         -1.67190      -10.03090        0.15680
H         -0.02680      -10.65800        0.26220
H         -1.01090      -11.06460       -1.17110
H         -2.02220       -8.48560       -2.37450
H         -0.80120       -9.36600       -3.22410
H         -0.48440       -7.63620       -2.82590
H         -2.55140       -8.19690       -0.35110
H         -4.68120       -7.30370       -1.13730
H         -6.55300       -6.94660       -0.80540
H         -8.66200       -5.37210        0.72680
H         -7.13460       -6.05230        1.38990
H         -8.41090       -7.13730        0.71000
H         -9.10150       -5.68000       -1.91770
H         -8.66180       -7.40460       -1.84980
H         -7.74920       -6.28350       -2.91500
H         -8.51760       -3.86960       -0.82380
H         -8.02790       -1.74330       -1.65980
H         -5.98990       -1.34950       -2.81980
H         -3.64620       -1.69530       -2.91010
H         -2.13470       -3.32990       -2.27810
H         -2.40950       -4.48760       -3.14150
H         -1.79680       -2.74830       -3.81050
H         -3.94150       -3.17160       -5.45540
H         -5.44870       -3.28370       -4.72420
H         -4.94060       -1.65100       -4.92380
