41

N         -0.67900        1.19300        0.00100
C         -1.34540        0.07740        0.44070
C         -2.79230        0.14040        0.83770
C         -0.70680       -1.16810        0.46080
C          0.61510       -1.27920        0.02820
C          1.32080       -2.60210        0.03010
C          1.28130       -0.13700       -0.41360
C          0.62500        1.10380       -0.42520
C          1.40950        2.32670       -0.81590
Cu        -1.69140        3.03290        0.00550
Br        -1.36700        3.21760       -2.55750
C         -1.96070        2.87950        2.13300
C         -2.16280        3.81760        3.06710
N         -2.70380        4.87270        0.01000
C         -2.37220        5.83520       -0.90280
N         -2.96140        7.06020       -0.86810
C         -3.91890        7.35990        0.04830
O         -4.48110        8.58960        0.10460
C         -4.13500        9.63270       -0.72600
C         -4.32250        6.38430        0.94850
C         -3.70070        5.14000        0.90620
H         -3.21480        1.15340        0.69150
H         -2.90940       -0.16640        1.89820
H         -3.38420       -0.55000        0.20000
H         -1.24490       -2.04730        0.79630
H          0.66380       -3.41590        0.40460
H          2.21900       -2.54690        0.68000
H          1.63610       -2.85510       -1.00410
H          2.31490       -0.21400       -0.73220
H          2.47130        2.08050       -1.03020
H          1.39250        3.05760        0.02060
H          1.03150        2.80440       -1.72450
H         -1.84660        1.88030        2.53130
H         -2.22720        4.87460        2.86220
H         -2.24630        3.50910        4.10660
H         -1.58620        5.67440       -1.61760
H         -4.72540       10.52950       -0.44740
H         -4.35760        9.36660       -1.78050
H         -3.05460        9.87030       -0.61610
H         -5.09800        6.58580        1.67700
H         -4.04920        4.38600        1.59070
