40

P          1.08580        0.00490        0.05110
O         -0.09480        0.30350       -1.16250
C          0.34100        1.51400       -1.79470
C         -0.39050        1.83310       -3.08190
O          0.65410       -1.57870        0.51830
C          0.70150       -2.46900       -0.56210
C          0.03040       -3.76020       -0.11340
O          0.64710        1.36850        1.00970
C         -0.75590        1.29720        1.28500
C         -1.27140        2.61110        1.84720
Cu         3.54580        0.00490        0.05110
Br         3.42170       -0.17150        2.52580
C          3.55850        0.17890       -2.01730
C          4.00420        1.29340       -2.59610
N          5.64580        0.00490        0.05110
C          6.50220        0.06020       -0.99270
O          7.75390        0.04690       -0.59130
C          7.74700       -0.01960        0.71840
C          6.43710       -0.05610        1.13630
H          1.40710        1.47860       -2.08240
H          0.18550        2.39060       -1.13040
H         -0.21050        1.03260       -3.84040
H          0.00220        2.78630       -3.49280
H         -1.47630        1.94550       -2.89570
H          1.75810       -2.67520       -0.83610
H          0.13140       -2.09930       -1.44180
H          0.54470       -4.17130        0.78260
H          0.06240       -4.51620       -0.92560
H         -1.03400       -3.56820        0.15150
H         -0.98520        0.46770        1.98610
H         -1.38970        1.17940        0.38150
H         -0.80330        2.82340        2.82620
H         -2.37610        2.54350        1.97740
H         -1.06340        3.43930        1.13490
H          3.15670       -0.62690       -2.62660
H          4.39270        2.10940       -1.98540
H          3.99550        1.40100       -3.67840
H          6.22300        0.10090       -2.03130
H          8.63030       -0.04070        1.34490
H          6.11470       -0.10460        2.16530
