26

N         -0.67900        1.19300        0.00100
C          0.63600        1.14840       -0.36040
F          1.26630        2.28670       -0.73840
C          1.30890       -0.07760       -0.42190
C          0.63390       -1.24410       -0.05740
F          1.27870       -2.43700       -0.08370
C         -0.70530       -1.18160        0.32340
C         -1.36420        0.05460        0.30340
F         -2.65660        0.13660        0.69590
Cu        -1.69140        3.03290        0.00550
Br        -2.88290        2.38260       -2.20030
C         -0.70230        3.57260        1.83650
C          0.34710        2.93940        2.36580
O         -2.67960        4.82890        0.00990
C         -3.79410        5.09140       -0.64210
N         -4.18330        6.36910       -0.46740
C         -3.23870        6.90080        0.32790
C         -2.30860        5.93150        0.62410
H          2.34170       -0.11630       -0.75640
H         -1.23230       -2.07430        0.62730
H         -1.09390        4.39230        2.42030
H          0.81130        2.08400        1.91250
H          0.75570        3.27710        3.31250
H         -4.35800        4.38940       -1.23280
H         -3.22110        7.93130        0.65580
H         -1.42130        6.08870        1.21340
