55

P          0.94540        0.04010        0.07350
O         -0.29090       -1.14160       -0.17430
C          0.09340       -1.81000       -1.38140
C         -0.64210       -3.10230       -1.68880
O          0.53870        0.55100        1.65340
C          0.54740       -0.51530        2.56490
C         -0.14800       -0.03560        3.83620
O          0.48670        0.99660       -1.28820
C         -0.92120        1.26700       -1.21300
C         -1.44480        1.85450       -2.51140
Cu         3.40540        0.04010        0.07350
Br         3.40540        2.58200        0.57030
C          3.40540       -2.07000       -0.33880
C          3.47170       -2.58040       -1.56880
C          5.55540        0.04010        0.07350
N          6.37240       -1.01510       -0.02320
C          6.22640       -2.47980       -0.00500
C          6.58380       -3.13310       -1.35330
C          7.77300       -0.64500       -0.02810
C          7.80680        0.82470       -0.11770
N          6.44540        1.21600        0.15330
C          6.22660        2.65470        0.32150
C          7.46750        3.56930        0.29510
H          1.12250       -2.14240       -1.32200
H         -0.02060       -1.15310       -2.26970
H         -0.47790       -3.85410       -0.89060
H         -0.20680       -3.51770       -2.63240
H         -1.71750       -2.91890       -1.86000
H          1.59350       -0.79600        2.80680
H         -0.02670       -1.39560        2.20360
H          0.36530        0.86410        4.23910
H         -0.13730       -0.83280        4.60750
H         -1.20500        0.23340        3.61580
H         -1.15650        1.94020       -0.36430
H         -1.55140        0.36040       -1.12740
H         -0.99510        2.84550       -2.70310
H         -2.55290        1.96640       -2.43600
H         -1.23560        1.16380       -3.35740
H          3.26200       -2.73640        0.50750
H          3.55170       -1.93700       -2.43570
H          3.41490       -3.65830       -1.70010
H          5.35230       -2.86270        0.48500
H          6.94610       -2.89250        0.73240
H          5.95150       -2.75860       -2.17870
H          6.46570       -4.23310       -1.27180
H          7.63880       -2.94860       -1.63380
H          8.37090       -1.06170       -0.87140
H          8.22130       -0.97350        0.93290
H          8.04960        1.15880       -1.15280
H          8.55730        1.20130        0.60590
H          5.81010        2.81970        1.33690
H          5.62220        3.02320       -0.52990
H          8.17560        3.32430        1.11450
H          7.14420        4.62110        0.45020
H          7.98150        3.51390       -0.68710
