26

O          1.02600        0.09630        0.00760
C          0.46920       -0.32620       -1.20460
C          0.84540       -1.76900       -1.51010
C         -1.05350       -0.19350       -1.06680
Cu         3.07600        0.09630        0.00760
Br         3.07600        1.76510       -1.97310
C          3.07600       -1.28900        1.65180
C          3.08460       -0.92490        2.93110
O          5.12600        0.09630        0.00760
C          5.92220        0.79600       -0.77890
N          7.22070        0.53060       -0.53780
C          7.20020       -0.38340        0.44600
C          5.89180       -0.64180        0.78420
H          0.77940        0.33830       -2.03020
H          0.50750       -2.44160       -0.69480
H          1.94630       -1.85400       -1.62360
H          0.36420       -2.08740       -2.46080
H         -1.42550       -0.83700       -0.23980
H         -1.56640       -0.48100       -2.00710
H         -1.32100        0.85950       -0.82780
H          3.06440       -2.34520        1.40200
H          3.09600        0.11830        3.21730
H          3.08280       -1.69590        3.69840
H          5.62150        1.50460       -1.52630
H          8.07980       -0.83780        0.87950
H          5.57670       -1.34710        1.53500
