102

P          0.91710       -0.04810       -0.02850
C          0.13080       -0.57710       -1.66450
C          0.63500        0.31120       -2.82580
C          0.22740       -0.46800       -4.05940
C          0.71610       -1.85170       -3.71640
C          0.48520       -1.98270       -2.19540
C          0.44490       -1.36690        1.16440
C          0.79230       -1.00680        2.60640
C         -0.03800       -2.02490        3.37830
C         -1.39290       -1.84700        2.71450
C         -1.06750       -1.69880        1.22010
C          0.15650        1.68780       -0.08700
C         -1.38820        1.72740       -0.16110
C         -1.68090        3.19720       -0.03210
C         -0.85790        3.55430        1.17940
C          0.42880        2.70980        1.05130
Cu         3.37710       -0.04810       -0.02850
Br         3.37710       -2.61030       -0.40670
C          3.37710        2.07890        0.28550
C          3.50650        2.53130        1.53310
P          5.83710       -0.04810       -0.02850
C          6.71700        1.49450       -0.89770
C          6.45560        2.96610       -0.44320
C          7.45840        3.51780        0.57230
C          8.92280        3.36550        0.05370
C          9.29450        1.99890       -0.59870
C          8.16450        1.54280       -1.51790
C          6.42160        0.39010        1.79890
C          6.07590       -0.62440        2.95190
C          7.02370       -1.87020        3.05420
C          8.52180       -1.50820        3.11330
C          8.87200       -0.55070        1.98740
C          7.92990        0.65360        2.09470
C          6.26060       -1.68360       -0.91150
C          5.68310       -1.69650       -2.36040
C          6.64930       -1.08690       -3.39820
C          7.96980       -1.87880       -3.43880
C          8.63720       -2.00380       -2.05070
C          7.63940       -2.47350       -1.00360
H         -0.97510       -0.54670       -1.65340
H          1.74940        0.37700       -2.78830
H          0.21550        1.33400       -2.87120
H          0.66230       -0.07000       -5.00600
H         -0.87930       -0.46800       -4.13370
H          1.82000       -1.82590       -3.89800
H          0.30800       -2.67240       -4.34260
H          1.43920       -2.31800       -1.84940
H         -0.25420       -2.74850       -1.89230
H          0.96580       -2.31910        0.93850
H          0.41230        0.01210        2.84930
H          1.88010       -1.04130        2.82590
H         -0.06480       -1.85140        4.47700
H          0.34530       -3.05110        3.18230
H         -1.77890       -0.86400        3.07610
H         -2.16810       -2.60750        2.95590
H         -1.75190       -0.94400        0.79820
H         -1.23260       -2.64730        0.66410
H          0.52380        2.21000       -0.99330
H         -1.82580        1.20640        0.71710
H         -1.83630        1.30880       -1.08550
H         -2.76920        3.44440        0.08650
H         -1.29560        3.73320       -0.93890
H         -1.41500        3.15430        2.06090
H         -0.69190        4.63590        1.34720
H          0.66130        2.24330        2.03060
H          1.23660        3.38650        0.71710
H          3.27220        2.75730       -0.55550
H          3.59450        1.82570        2.35170
H          3.50960        3.59640        1.73790
H          6.09610        1.43800       -1.81590
H          5.44780        3.16870       -0.11290
H          6.57420        3.61620       -1.34290
H          7.24620        3.08420        1.55710
H          7.26060        4.59700        0.74510
H          9.64840        3.63410        0.85040
H          9.02660        4.11650       -0.75920
H          9.57230        1.16040        0.05260
H         10.23910        2.13300       -1.16780
H          8.44690        0.68020       -2.08600
H          8.14780        2.32400       -2.31310
H          5.88540        1.33130        2.02670
H          5.01640       -0.92090        2.94540
H          6.23870       -0.07340        3.91290
H          6.85610       -2.52860        2.18110
H          6.79980       -2.43770        3.98310
H          9.16750       -2.41500        3.07090
H          8.76250       -0.99110        4.07350
H          8.78520       -0.99360        0.99210
H          9.93400       -0.24190        2.10710
H          8.32120        1.41750        1.51860
H          8.06520        1.07250        3.11880
H          5.77810       -2.38430       -0.24370
H          4.72640       -1.14890       -2.35990
H          5.49840       -2.73590       -2.66780
H          6.82470       -0.03270       -3.20210
H          6.18010       -1.12670       -4.40600
H          8.67350       -1.42640       -4.16480
H          7.72500       -2.90220       -3.79590
H          9.13630       -1.10720       -1.68670
H          9.47070       -2.74090       -2.13700
H          8.09700       -2.63800       -0.02280
H          7.36340       -3.50240       -1.33200
