63

P          1.06140       -0.07190        0.03250
C          0.00560        0.44820        1.44420
C          0.81980        1.51000       -0.85280
C          0.14780       -1.63270       -0.44190
C         -1.32180       -1.28990       -0.80060
C          0.80950       -2.24440       -1.68030
C          0.14130       -2.67350        0.69620
Cu         3.52140       -0.07190        0.03250
Br         3.41240        0.19320       -2.45330
C          3.45080        0.13720        2.09400
C          3.78700       -0.81190        2.96210
P          5.98140       -0.07190        0.03250
O          7.52210       -0.08760        0.77540
C          7.33100       -0.62350        2.09620
C          7.43600       -2.16180        2.12230
C          8.35270       -0.04310        3.07560
O          6.21850       -1.67940       -0.54820
C          5.75270       -2.01100       -1.84590
C          6.38120       -1.21500       -3.01900
C          6.12090       -3.47380       -2.08020
O          6.43020        0.98020       -1.22790
C          5.93960        2.28940       -1.03710
C          6.51780        2.98550        0.20930
C          6.34980        3.08590       -2.28000
H         -1.05110        0.62950        1.18940
H          0.40840        1.40410        1.84300
H          0.09360       -0.27810        2.27550
H         -0.26330        1.75500       -0.88440
H          1.14250        1.44280       -1.90470
H          1.36410        2.32760       -0.33900
H         -1.36290       -0.50880       -1.58650
H         -1.91070       -0.94340        0.07380
H         -1.86110       -2.18690       -1.17650
H          0.81820       -1.51980       -2.51430
H          0.24470       -3.14610       -2.00420
H          1.85060       -2.55480       -1.44150
H         -0.39540       -2.30190        1.60050
H          1.16720       -2.96260        0.99030
H         -0.41100       -3.59110        0.37900
H          3.10590        1.09630        2.46940
H          4.13600       -1.77160        2.61120
H          3.71570       -0.60190        4.02250
H          6.35350       -0.32680        2.54210
H          8.41670       -2.49380        1.72140
H          6.62430       -2.64060        1.54420
H          7.32200       -2.54230        3.16090
H          9.38900       -0.27880        2.75880
H          8.18930       -0.47660        4.08890
H          8.22510        1.05610        3.16240
H          4.65040       -1.99710       -1.85460
H          7.48850       -1.24630       -2.97820
H          6.05770       -0.17450       -3.09980
H          6.04700       -1.64870       -3.99350
H          7.22560       -3.60050       -2.09150
H          5.71460       -3.82600       -3.05480
H          5.69460       -4.11840       -1.27220
H          4.82820        2.28460       -0.98670
H          7.62730        3.00240        0.17070
H          6.19560        2.47570        1.14000
H          6.14320        4.03080        0.26170
H          7.45770        3.11480       -2.36930
H          5.96460        4.12610       -2.23240
H          5.94250        2.59970       -3.19340
