88

P          1.05600       -0.08050        0.01960
C          0.00650        0.43450        1.47810
C          0.31570        1.79560        2.13030
C         -0.83520        1.94050        3.10800
C         -2.00720        1.57110        2.21530
C         -1.52320        0.36600        1.39880
C          0.48170        1.18330       -1.29080
C          0.74690        2.69270       -1.14230
C          0.38980        3.21170       -2.53580
C          1.08930        2.24740       -3.45610
C          1.09920        0.94200       -2.65830
C          0.57530       -1.87700       -0.17290
C          0.65620       -2.78200        1.06450
C         -0.24440       -3.96380        0.67190
C         -1.45780       -3.22700        0.12520
C         -0.85850       -2.12350       -0.73570
Cu         3.51600       -0.08050        0.01960
Br         3.51600       -1.02580       -2.39170
C          3.51600        0.70420        2.02130
C          4.05710        1.87860        2.33010
P          5.97600       -0.08050        0.01960
C          7.04560        0.64070        1.31850
C          7.25560       -0.04460        2.53690
C          7.84920        0.59490        3.63090
C          8.21040        1.93890        3.54740
C          7.99550        2.63870        2.36270
C          7.42160        1.99890        1.26180
C          6.42920       -1.81740        0.23810
C          7.69240       -2.26440       -0.19050
C          8.09780       -3.57960        0.03730
C          7.26470       -4.45330        0.73510
C          6.02060       -4.01090        1.19770
C          5.59590       -2.69890        0.94250
C          6.32630        0.74400       -1.57470
C          5.93550        2.09620       -1.78100
O          5.19920        2.73260       -0.82950
C          4.86550        4.07600       -0.82620
C          6.34090        2.76790       -2.95500
C          7.10570        2.11480       -3.91440
C          7.46070        0.78070       -3.73070
C          7.06750        0.09480       -2.57410
H          0.30690       -0.23500        2.31320
H          0.23730        2.62990        1.44100
H          1.30120        1.87990        2.62130
H         -0.91610        2.96080        3.54470
H         -0.72430        1.19810        3.92820
H         -2.12440        2.42050        1.50210
H         -2.98060        1.42370        2.72500
H         -1.95960        0.46810        0.39100
H         -1.83010       -0.59300        1.87030
H         -0.61970        1.07500       -1.40740
H          1.82380        2.87470       -0.92670
H          0.09600        3.23310       -0.44410
H          0.65010        4.27300       -2.73240
H         -0.70620        3.08130       -2.68660
H          2.14680        2.60010       -3.56850
H          0.65680        2.18840       -4.47620
H          2.14060        0.91630       -2.39400
H          0.75380        0.02590       -3.18860
H          1.24380       -2.32630       -0.93780
H          0.15790       -2.31120        1.93580
H          1.68760       -3.06200        1.35630
H         -0.48980       -4.63430        1.52420
H          0.24020       -4.55170       -0.13530
H         -1.98240       -2.77470        0.98830
H         -2.20020       -3.88120       -0.40600
H         -1.55200       -1.26870       -0.78830
H         -0.74740       -2.49020       -1.78190
H          3.09020        0.09060        2.80850
H          4.50430        2.49350        1.56760
H          4.05320        2.22570        3.35830
H          6.93140       -1.06450        2.67460
H          7.99190        0.05960        4.56120
H          8.63330        2.44420        4.40670
H          8.24400        3.69190        2.30810
H          7.23640        2.60280        0.39500
H          8.37830       -1.59890       -0.69410
H          9.06700       -3.91430       -0.31140
H          7.59250       -5.46680        0.93090
H          5.39340       -4.68530        1.76630
H          4.64390       -2.36230        1.33100
H          4.26450        4.30840        0.07430
H          4.25410        4.33610       -1.71570
H          5.78550        4.70160       -0.79740
H          6.08280        3.80440       -3.12680
H          7.42800        2.64930       -4.79990
H          8.05720        0.28260       -4.48450
H          7.38190       -0.92500       -2.47670
