79

C          0.90100       -0.64300       -0.00200
N         -0.45990       -0.89070        0.10500
C         -1.13800       -2.18820        0.28410
C         -0.38010       -3.29750       -0.11460
C         -0.13950       -3.34440       -1.64780
C         -0.43480       -2.08750       -2.54690
C          1.04280       -4.17440       -2.12610
C         -0.63510       -4.58040        0.37540
C         -1.81300       -4.84760        1.03790
C         -2.77370       -3.86290        1.09320
C         -2.51880       -2.52340        0.68900
C         -3.80300       -1.65840        0.61840
C         -4.66740       -2.21130       -0.55480
C         -4.68640       -1.66960        1.88610
C         -0.99560        0.37080        0.04730
C         -0.01050        1.31210       -0.14070
N          1.23420        0.80750       -0.14080
C          2.51000        1.82370       -0.20130
C          2.46750        3.14780        0.51360
C          1.32220        3.87080        1.26540
C          1.63770        4.05150        2.76370
C          1.07930        5.25690        0.58750
C          3.62200        3.97470        0.62780
C          4.82220        3.76850        0.06500
C          4.97040        2.67540       -0.66320
C          3.94690        1.72480       -0.80490
C          4.59930        0.61890       -1.52220
C          6.08780        0.38940       -2.08940
C          4.58810       -0.28820       -0.34940
Cu         2.65840       -1.88140       -0.01350
Br         2.89830       -1.51730       -2.56650
C          2.45930       -2.18370        2.10580
C          3.07260       -2.82930        3.09760
C          4.41590       -3.11990       -0.02500
N          4.40410       -4.35080        0.53570
C          5.67990       -4.78820        0.45840
C          6.45730       -3.78620       -0.04880
O          5.65870       -2.81220       -0.37470
H         -1.03780       -3.92820       -1.95840
H          0.39580       -1.40210       -2.71480
H         -1.28810       -1.46320       -2.20330
H         -0.73180       -2.43470       -3.55900
H          1.01450       -5.21170       -1.74970
H          1.02590       -4.22460       -3.23660
H          1.97920       -3.75390       -1.74950
H         -0.04560       -5.43850        0.10240
H         -2.04870       -5.85610        1.34900
H         -3.74380       -4.18180        1.43980
H         -3.59740       -0.62090        0.36360
H         -4.95340       -3.27740       -0.40320
H         -4.11000       -2.15610       -1.51530
H         -5.61390       -1.64370       -0.68030
H         -5.09440       -2.67640        2.11990
H         -5.58240       -1.02950        1.72090
H         -4.13270       -1.28960        2.76370
H         -2.02540        0.60410        0.11570
H         -0.26310        2.34970       -0.28730
H          0.37590        3.34830        1.28630
H          2.59570        4.56520        2.97910
H          1.66470        3.05940        3.25800
H          0.84110        4.66560        3.23230
H          1.95830        5.93790        0.58610
H          0.28910        5.82550        1.11160
H          0.79680        5.12950       -0.47900
H          3.65450        4.91320        1.18050
H          5.66540        4.44900        0.19300
H          5.96970        2.57030       -1.06800
H          3.99700        0.59970       -2.42820
H          6.87350        0.34270       -1.29350
H          6.44060        1.08710       -2.87330
H          6.15360       -0.62760       -2.55990
H          5.43670       -0.13580        0.35340
H          4.67640       -1.10910       -0.94960
H          3.70260       -0.29460        0.29260
H          1.58370       -1.62910        2.43040
H          3.95270       -3.43950        3.00750
H          2.61680       -2.71460        4.08840
H          6.03450       -5.75970        0.77280
H          7.53450       -3.76510       -0.16620
