91

P          1.06390       -0.00620       -0.07670
C          0.16600       -1.47700       -0.85700
C         -1.36960       -1.50830       -0.88990
C         -1.64590       -2.59550       -1.94600
C         -0.70940       -2.17740       -3.05330
C          0.59340       -1.90810       -2.28990
C          0.42350       -0.15690        1.67180
C          0.87220       -1.37950        2.46700
C          0.36480       -1.01470        3.86580
C          0.73620        0.45360        4.03670
C          0.84860        0.97300        2.60090
C          0.44650        1.31910       -1.27200
C          0.67720        2.80840       -1.02150
C         -0.01890        3.40180       -2.26320
C          0.59240        2.57850       -3.38020
C          0.76030        1.18270       -2.77430
Cu         3.52390       -0.00620       -0.07670
Br         3.52390        2.25860        1.17970
C          3.52390       -1.88630       -1.11970
C          3.50400       -3.01180       -0.41210
C          5.67390       -0.00620       -0.07670
N          6.40190       -0.51510        0.96590
C          5.93590       -1.04270        2.25220
C          6.20870        0.06380        3.30030
C          5.71140       -0.33500        4.68800
C          6.40130       -1.62380        5.14440
C          6.18990       -2.74800        4.11260
C          6.68430       -2.32480        2.71280
C          7.69380       -0.27750        0.69490
C          7.76560        0.49210       -0.42060
N          6.51730        0.72480       -0.88070
C          6.24210        1.56480       -2.08070
C          6.99630        0.84510       -3.22600
C          6.96070        1.58240       -4.55150
C          7.51150        2.99810       -4.38940
C          6.66810        3.74860       -3.34850
C          6.76200        3.04260       -1.96790
H          0.45490       -2.35380       -0.23520
H         -1.77240       -0.56120       -1.29200
H         -1.82880       -1.71120        0.09700
H         -2.71210       -2.62160       -2.27150
H         -1.34580       -3.58920       -1.57010
H         -1.11900       -1.23960       -3.48830
H         -0.60080       -2.89190       -3.90090
H          1.29530       -1.28120       -2.86360
H          1.12210       -2.88260       -2.21250
H         -0.69020       -0.15320        1.63460
H          1.98300       -1.43870        2.47260
H          0.44480       -2.33490        2.10090
H          0.71200       -1.66060        4.69890
H         -0.74770       -1.06010        3.83440
H          1.74190        0.54600        4.51720
H          0.00580        0.99260        4.67610
H          1.91980        0.98710        2.48050
H          0.44240        1.98930        2.40070
H         -0.65850        1.24870       -1.17890
H          1.76070        3.05240       -1.05460
H          0.22920        3.18080       -0.07680
H          0.09960        4.49380       -2.42170
H         -1.11490        3.18480       -2.22090
H          1.61060        2.99140       -3.55000
H          0.05220        2.59920       -4.35470
H          1.79980        0.85210       -2.97940
H          0.01390        0.51760       -3.22900
H          3.56250       -1.91340       -2.20320
H          3.47660       -2.96160        0.67110
H          3.51730       -3.97630       -0.90770
H          4.83690       -1.23230        2.20430
H          5.71010        1.00510        2.99030
H          7.30390        0.27240        3.35840
H          4.61210       -0.48200        4.64610
H          5.92870        0.48220        5.41320
H          5.99330       -1.92830        6.13280
H          7.49040       -1.43090        5.26910
H          5.10880       -2.99290        4.05140
H          6.73930       -3.65340        4.45310
H          6.53610       -3.15320        1.99100
H          7.77880       -2.13220        2.79300
H          8.53270       -0.59230        1.30500
H          8.68670        0.85580       -0.84190
H          5.16050        1.60070       -2.27630
H          6.58050       -0.17250       -3.34470
H          8.07730        0.75470       -2.97120
H          5.91750        1.62580       -4.93530
H          7.58500        1.02140       -5.28320
H          7.48310        3.51380       -5.37400
H          8.57780        2.96720       -4.05400
H          5.61170        3.77770       -3.69900
H          7.03170        4.79900       -3.28870
H          6.17170        3.62630       -1.22880
H          7.83150        3.09080       -1.64940
