93

P          1.00770       -0.06870        0.07220
C         -0.05660       -0.54850        1.62080
C         -1.60360       -0.62620        1.55330
C         -2.12380       -1.95170        0.98090
C         -1.53000       -3.17810        1.73440
C          0.00940       -3.13700        1.94300
C          0.38590       -1.78000        2.49840
C          0.17530        1.63320       -0.19830
C         -0.01860        2.72850        0.91140
C          1.17790        3.67320        1.13110
C          1.65470        4.27530       -0.19660
C          1.95230        3.14710       -1.15240
C          0.67530        2.34220       -1.45540
C          0.45080       -1.34040       -1.38400
C          1.06700       -1.22630       -2.83100
C          2.30140       -2.14460       -3.09170
C          1.97620       -3.62330       -2.85400
C          1.42170       -3.80370       -1.44560
C          0.18960       -2.90040       -1.30180
Cu         3.46770       -0.06870        0.07220
Br         3.46770        0.85180       -2.34870
C          3.46770       -0.83290        2.08180
C          3.88260       -2.08790        2.25500
P          5.92770       -0.06870        0.07220
C          6.82850       -1.12070        1.26310
C          7.53960       -2.26350        0.83900
C          7.88870       -3.26890        1.75490
C          7.53820       -3.13360        3.09970
C          6.89890       -1.98210        3.54330
C          6.55410       -0.97700        2.63140
C          6.27670       -0.45040       -1.66590
C          6.57210        0.55320       -2.60360
C          6.81260        0.22710       -3.94930
C          6.80270       -1.10520       -4.37020
C          6.51570       -2.11690       -3.45070
C          6.22490       -1.79510       -2.11980
C          6.54390        1.54280        0.59040
C          5.69330        2.59580        0.93730
C          6.24160        3.84830        1.26960
C          7.62960        4.04100        1.26290
C          8.47920        2.98670        0.92370
C          7.94050        1.74200        0.58240
H          0.18550        0.28990        2.29940
H         -2.05930        0.24570        1.05030
H         -1.97390       -0.59770        2.60850
H         -1.92270       -1.94150       -0.09300
H         -3.22720       -1.98990        1.06000
H         -1.82640       -4.12690        1.23310
H         -1.98030       -3.19040        2.74730
H          0.66680       -3.30200        1.09890
H          0.29510       -3.95420        2.64100
H          1.43440       -1.80480        2.74160
H         -0.10660       -1.70650        3.49270
H         -0.85910        1.30690       -0.42650
H         -0.39160        2.32810        1.87100
H         -0.83230        3.39520        0.53710
H          2.00750        3.11450        1.60730
H          0.88470        4.51460        1.79830
H          2.57900        4.87150       -0.03390
H          0.88940        4.93730       -0.65940
H          2.70740        2.52310       -0.63490
H          2.36450        3.55070       -2.10050
H          0.80770        1.61080       -2.25670
H         -0.09450        3.05090       -1.83270
H         -0.57730       -0.94430       -1.51340
H          1.23510       -0.20510       -3.16400
H          0.29590       -1.58420       -3.55910
H          3.14600       -1.87090       -2.43400
H          2.62440       -2.04580       -4.15330
H          2.87300       -4.26580       -3.00170
H          1.21050       -3.96620       -3.59140
H          2.17950       -3.56450       -0.67470
H          1.12010       -4.87310       -1.33000
H         -0.44460       -3.26590       -0.52390
H         -0.47970       -3.17700       -2.15110
H          3.16900       -0.21370        2.92170
H          4.19830       -2.66450        1.39110
H          3.92740       -2.52990        3.24370
H          7.78260       -2.44230       -0.19410
H          8.37220       -4.17470        1.41180
H          7.75170       -3.94610        3.79560
H          6.61320       -1.89380        4.58200
H          5.98510       -0.13250        2.98400
H          6.57900        1.58940       -2.30200
H          7.00970        1.01050       -4.66890
H          7.00610       -1.35480       -5.40190
H          6.51510       -3.15290       -3.77100
H          5.98910       -2.60150       -1.44010
H          4.62130        2.46500        0.92930
H          5.59300        4.67260        1.52380
H          8.05000        5.00690        1.51440
H          9.55140        3.13410        0.91360
H          8.60910        0.94020        0.30860
