55

P          0.91530        0.02110       -0.04880
C         -0.07630        0.79410        1.35210
C         -1.45150        1.10650        1.33590
C         -2.08640        1.64210        2.48360
C         -1.36420        1.91740        3.64960
C         -0.01820        1.63310        3.68760
C          0.58530        1.05960        2.57890
C          0.54030        1.08430       -1.46520
C          0.97440        2.41330       -1.44130
C          0.65710        3.28900       -2.48240
C         -0.10260        2.84450       -3.56540
C         -0.54240        1.51810       -3.60880
C         -0.22470        0.63450       -2.56230
C          0.22460       -1.64930        0.18030
C         -1.17680       -1.84920        0.13740
C         -1.74360       -3.07430        0.49440
C         -0.92160       -4.12990        0.87680
C          0.46770       -3.96330        0.87930
C          1.04060       -2.72810        0.53430
Cu         3.37530        0.02110       -0.04880
Br         3.21720       -1.32520       -2.14900
C          3.51800        1.06540        1.70790
C          3.36060        2.37860        1.77850
N          5.47530        0.02110       -0.04880
C          6.16070       -0.64380       -1.03820
N          7.51390       -0.74510       -1.02550
C          8.26360       -0.18310       -0.04980
O          9.60930       -0.32400       -0.03260
C         10.30140       -1.10310       -0.93500
C          7.63130        0.53160        0.94870
C          6.24110        0.62140        0.93320
H         -2.04890        0.94040        0.46110
H         -3.14420        1.85000        2.47940
H         -1.83330        2.33410        4.53350
H          0.56910        1.83020        4.58310
H          1.57250        0.80930        2.76880
H          1.54560        2.77640       -0.60500
H          0.99360        4.31640       -2.44200
H         -0.35330        3.53130       -4.36560
H         -1.13710        1.18550       -4.45220
H         -0.59010       -0.38370       -2.61110
H         -1.85600       -1.06370       -0.13720
H         -2.82240       -3.19750        0.49510
H         -1.36420       -5.07290        1.17510
H          1.09840       -4.78790        1.17770
H          2.11160       -2.60380        0.58440
H          3.82130        0.51090        2.60440
H          3.18490        2.97570        0.88620
H          3.48840        2.88930        2.72840
H          5.67690       -1.14290       -1.84030
H         11.38550       -1.05210       -0.70830
H         10.12910       -0.73480       -1.96840
H          9.97060       -2.16200       -0.85600
H          8.20180        0.99680        1.74370
H          5.84310        1.17600        1.75510
