33

P          1.06500        0.05860        0.04840
F         -0.60780        0.11010        0.08070
F          1.06560        0.98160       -1.34810
F          1.00420       -1.61220       -0.01540
Ni         3.52500        0.05860        0.04840
Br         3.62960       -1.97400       -1.37050
C          3.39730        1.78950        1.19650
C          2.92200        1.75450        2.44540
P          5.98500        0.05860        0.04840
C          7.24970       -0.86190       -0.90300
C          6.37020        1.78610       -0.36640
C          6.52550       -0.48790        1.79210
C          6.00820       -1.90770        2.05820
C          8.06870       -0.48860        1.91820
C          5.99290        0.46330        2.85940
H          3.69820        2.74180        0.76700
H          2.62080        0.80810        2.87790
H          2.87250        2.65760        3.03790
H          7.03310       -0.71000       -1.98010
H          7.16150       -1.94900       -0.71040
H          8.28280       -0.50330       -0.72790
H          6.02960        1.97430       -1.40500
H          7.46790        1.94240       -0.32740
H          5.88100        2.50300        0.32030
H          6.40960       -2.64290        1.33020
H          4.89720       -1.92950        1.99330
H          6.30380       -2.24490        3.06960
H          8.54760       -1.25670        1.28460
H          8.36770       -0.74730        2.95470
H          8.49230        0.51290        1.67440
H          4.90940        0.37930        2.92550
H          6.30350        1.51120        2.66280
H          6.38070        0.17330        3.85900
