59

P          0.93100       -0.05130       -0.05100
F         -0.73610       -0.09370        0.09300
F          0.90370        1.62240       -0.04920
F          0.83860       -0.94410       -1.46380
Ni         3.39100       -0.05130       -0.05100
Br         3.27980        0.36430       -2.50340
C          3.33640       -1.10570        1.79170
C          2.38650       -2.00350        2.08130
P          5.85100       -0.05130       -0.05100
N          6.76770       -1.59920       -0.26560
C          6.10090       -2.74960        0.41710
C          4.72170       -3.03990       -0.20910
C          6.87710       -4.08750        0.30530
C          8.21190       -1.52330       -0.04760
C          8.61640       -0.10120        0.15730
C         10.15660       -0.01950        0.27690
C          8.17470        0.72370       -1.09650
N          6.69490        0.86620       -1.34900
C          6.41100        2.36110       -1.29230
C          7.12340        3.16530       -2.41710
C          4.93700        2.77190       -1.37100
N          6.42650        0.19870        1.61720
C          5.89880        1.50110        2.21140
C          4.37170        1.65890        2.31620
C          6.45810        1.76160        3.62660
C          7.93240        0.37850        1.49650
H          4.12890       -0.99010        2.51660
H          1.58320       -2.23030        1.39280
H          2.41400       -2.54360        3.02170
H          5.98430       -2.49840        1.49500
H          4.82410       -3.42970       -1.24160
H          4.08440       -2.15430       -0.29640
H          4.18220       -3.79060        0.41090
H          6.97550       -4.38960       -0.75970
H          6.32220       -4.88510        0.84620
H          7.88590       -4.07310        0.75520
H          8.71820       -1.96010       -0.93880
H          8.53960       -2.07860        0.85440
H         10.63870       -0.37920       -0.66050
H         10.52990       -0.64020        1.11800
H         10.48220        1.02930        0.44530
H          8.64170        0.30970       -2.01710
H          8.67670        1.69840       -0.92460
H          6.79670        2.76970       -0.34180
H          6.77510        2.83950       -3.41800
H          8.22760        3.10400       -2.40180
H          6.89780        4.25040       -2.30170
H          4.55300        2.62470       -2.39680
H          4.83890        3.86160       -1.17030
H          4.31330        2.26000       -0.62510
H          6.22150        2.34580        1.58860
H          3.93640        1.02470        3.11090
H          3.85160        1.51120        1.36390
H          4.13210        2.70040        2.62060
H          6.12510        0.97310        4.33210
H          6.09260        2.74730        3.99630
H          7.56390        1.82100        3.65570
H          8.38860       -0.16750        2.35320
H          8.25700        1.43950        1.58920
