51

P          0.92840        0.05030       -0.04840
F         -0.73210        0.19140       -0.20610
F          0.89660       -1.42900       -0.83150
F          0.80410        0.18270        1.61570
Ni         3.38840        0.05030       -0.04840
Br         3.25180       -1.47690        1.91610
C          3.34730        1.24350       -1.73300
C          2.86470        2.48470       -1.65100
P          5.84840        0.05030       -0.04840
C          6.89150        1.52040       -0.31590
C          8.09110        1.71150        0.38100
C          8.77640        2.93030        0.28690
C          8.26730        3.96980       -0.48710
C          7.07430        3.79820       -1.18660
C          6.40330        2.57680       -1.10200
C          6.24990       -0.54940        1.68550
C          7.00910       -1.71540        1.98350
C          7.26410       -2.14030        3.27710
C          6.75920       -1.42600        4.35820
C          6.01860       -0.26660        4.12010
C          5.77450        0.17550        2.80230
C          6.28990       -0.64860       -1.74300
C          7.83260       -0.78550       -2.00800
C          8.52650       -1.75680       -1.04580
C          7.85770       -3.15580       -1.10190
C          6.30820       -3.11250       -0.97850
C          5.69960       -2.07730       -1.93510
H          3.74190        0.87950       -2.67330
H          2.48180        2.85980       -0.70770
H          2.86540        3.13330       -2.52140
H          8.48690        0.92680        1.02670
H          9.69630        3.07850        0.83640
H          8.77430        4.92780       -0.53700
H          6.66490        4.61540       -1.77590
H          5.47070        2.50370       -1.63380
H          7.44270       -2.35480        1.27270
H          7.84390       -3.04250        3.45200
H          6.94640       -1.77370        5.36350
H          5.62610        0.28510        4.96560
H          5.19130        1.06770        2.65610
H          5.87230        0.01620       -2.52310
H          8.35230        0.19110       -1.96580
H          7.98740       -1.17790       -3.03620
H          8.53300       -1.28210       -0.05570
H          9.60410       -1.86980       -1.29900
H          8.29690       -3.82620       -0.32380
H          8.10170       -3.60070       -2.08640
H          5.93110       -2.87600        0.02400
H          5.91230       -4.13120       -1.17730
H          4.59560       -2.06470       -1.80970
H          5.92150       -2.42240       -2.96880
