58

P          0.97120        0.07920        0.05390
F         -0.66770       -0.25890        0.09100
F          0.93860        0.43030        1.69060
F          0.69750        1.35030       -0.99450
Ni         3.43120        0.07920        0.05390
Br         3.31560       -1.73420        1.79990
C          3.50820        1.45780       -1.54320
C          2.78510        1.26170       -2.65130
C          5.58120        0.07920        0.05390
N          6.34580        1.22600       -0.00250
C          5.93760        2.64970        0.09390
C          4.73220        3.04740        0.78840
C          3.88360        2.14710        1.64410
C          4.28110        4.38080        0.76560
C          4.99740        5.38010        0.13180
C          4.50720        6.80380        0.12550
C          6.21230        5.05720       -0.46040
C          6.70410        3.73200       -0.48450
C          8.05460        3.57020       -1.13440
C          7.61310        0.75570       -0.01590
C          7.61580       -0.61170        0.03800
N          6.35320       -1.07520        0.11440
C          5.95710       -2.52520        0.03850
C          6.78270       -3.60970        0.58800
C          8.12160       -3.52760        1.27120
C          6.32730       -4.94750        0.50870
C          5.12200       -5.29680       -0.07740
C          4.62320       -6.71630       -0.10190
C          4.36750       -4.30800       -0.67100
C          4.75930       -2.95400       -0.64870
C          3.84200       -2.06940       -1.45290
H          4.20150        2.27460       -1.59280
H          2.09210        0.43060       -2.73300
H          2.88190        1.93540       -3.49760
H          4.32130        1.15820        1.83100
H          2.86130        2.06960        1.22500
H          3.79920        2.60400        2.65370
H          3.35850        4.64820        1.27390
H          3.51650        6.90450        0.62510
H          4.39230        7.15800       -0.92180
H          5.22860        7.46590        0.65000
H          6.78230        5.86450       -0.91080
H          8.43040        4.52210       -1.56750
H          8.01480        2.81710       -1.94290
H          8.80140        3.32960       -0.35470
H          8.51920        1.32090       -0.01730
H          8.51830       -1.19060       -0.01390
H          8.54330       -2.54390        1.47650
H          8.85700       -4.10410        0.65640
H          8.06310       -4.02350        2.26110
H          6.92700       -5.74760        0.93150
H          5.32390       -7.41510        0.39850
H          4.47170       -7.05680       -1.14890
H          3.64780       -6.76950        0.42810
H          3.44970       -4.61340       -1.16320
H          3.19530       -2.66000       -2.13920
H          4.40240       -1.36460       -2.09490
H          3.05430       -1.66000       -0.83200
