98

P          1.08210       -0.00660       -0.05680
C          0.11150        0.87930        1.21230
C          0.66010        0.84430        2.50850
C          0.02330        1.43540        3.60080
C          0.63270        1.41440        4.98160
C         -1.21080        2.05380        3.39380
C         -1.78430        2.08690        2.10870
C         -1.12300        1.50250        1.00670
C          0.69930        0.98110       -1.52360
C          1.11380        2.31590       -1.69300
C          0.73810        3.03880       -2.83480
C          1.15670        4.46800       -3.02960
C         -0.05180        2.42190       -3.81760
C         -0.46110        1.09820       -3.65860
C         -0.08780        0.38340       -2.51980
C          0.32690       -1.64070        0.30600
C          1.06310       -2.77320        0.72870
C          0.42750       -3.97530        1.07560
C          1.22700       -5.18190        1.46670
C         -0.96860       -4.04440        1.06760
C         -1.71660       -2.93300        0.68440
C         -1.08490       -1.76020        0.30140
Ni         3.54210       -0.00660       -0.05680
Br         3.22240       -2.08380       -1.42300
C          3.35900        1.80120        1.02910
C          4.30250        2.58580        1.53860
P          6.00210       -0.00660       -0.05680
N          6.98970        1.47880        0.05660
C          6.53530        2.46410       -0.99550
C          7.05570        3.88580       -0.74100
C          6.85040        2.07020       -2.46030
C          8.43310        1.32590        0.18990
C          8.82010       -0.13190        0.13220
C         10.35730       -0.22120        0.21800
C          8.13430       -0.86710        1.32890
N          6.62670       -0.73090        1.46920
C          6.08020       -2.11940        1.65630
C          6.67690       -2.90930        2.84690
C          4.56870       -2.15060        1.85470
N          6.90580       -0.72700       -1.42000
C          6.31670       -1.65450       -2.41620
C          7.12690       -1.67830       -3.72670
C          6.21950       -3.09670       -1.89580
C          8.36830       -0.75430       -1.21920
H          1.61510        0.34020        2.67800
H          1.63230        0.92240        4.98850
H         -0.02530        0.86580        5.68130
H          0.76830        2.45140        5.35840
H         -1.73550        2.50680        4.23100
H         -2.74320        2.56340        1.97010
H         -1.58270        1.53240        0.03750
H          1.71070        2.79950       -0.93320
H          1.78060        4.82740       -2.18570
H          0.25380        5.11250       -3.10000
H          1.73970        4.56160       -3.96850
H         -0.35490        2.96760       -4.70400
H         -1.07410        0.62730       -4.41720
H         -0.42590       -0.63930       -2.41180
H          2.12310       -2.73020        0.80730
H          2.31830       -5.00230        1.36520
H          0.95960       -6.03100        0.80020
H          1.00580       -5.46340        2.51680
H         -1.47380       -4.95640        1.36390
H         -2.79960       -2.98790        0.69960
H         -1.69860       -0.91510        0.02020
H          2.36080        2.19160        1.14860
H          5.34330        2.36320        1.49120
H          4.00630        3.52430        2.00330
H          5.42630        2.54730       -0.94590
H          8.15600        3.95500       -0.85200
H          6.75810        4.23270        0.26760
H          6.60650        4.58300       -1.48520
H          7.93640        1.94300       -2.63720
H          6.48810        2.85900       -3.15500
H          6.30300        1.16320       -2.76990
H          8.73370        1.76510        1.16740
H          8.97820        1.89060       -0.59440
H         10.72370        0.19990        1.17770
H         10.82200        0.36510       -0.60900
H         10.70230       -1.27080        0.12590
H          8.58730       -0.53020        2.28420
H          8.46290       -1.91730        1.16530
H          6.34170       -2.71600        0.77140
H          6.42940       -2.42600        3.81110
H          7.77070       -3.06200        2.79010
H          6.24860       -3.93900        2.84270
H          4.26490       -1.64220        2.78900
H          4.21050       -3.20480        1.86450
H          4.07100       -1.66770        1.03100
H          5.32800       -1.26140       -2.71120
H          8.14350       -2.09620       -3.56910
H          7.21480       -0.66120       -4.15880
H          6.61460       -2.32510       -4.47330
H          7.20970       -3.48380       -1.58530
H          5.79950       -3.76140       -2.67910
H          5.53880       -3.18200       -1.04440
H          8.84480       -0.19570       -2.05840
H          8.73590       -1.79790       -1.27310
