43

P          0.93910       -0.07200       -0.03330
C          0.14000       -0.54110       -1.65220
C         -1.38920       -0.50550       -1.80050
C          0.75130        0.36270       -2.73790
C          0.58770       -1.41600        1.19210
C          1.15740       -0.99560        2.54850
C         -0.91520       -1.67360        1.37830
C          0.21110        1.58480        0.21460
Ni         3.39910       -0.07200       -0.03330
Br         3.39910       -2.58350       -0.66590
C          3.39910        2.01290        0.49170
C          2.98290        2.98750       -0.31280
N          5.49910       -0.07200       -0.03330
C          6.20700        1.10380        0.09180
C          7.60610        1.14000        0.03920
Cl         8.46090        2.66700        0.12530
C          8.31330       -0.03830       -0.11410
C          7.62180       -1.23950       -0.21270
C          6.23460       -1.23020       -0.17810
H          0.48830       -1.57260       -1.87820
H         -1.79740        0.50540       -1.61150
H         -1.91750       -1.23930       -1.18630
H         -1.64560       -0.78730       -2.84760
H          0.41910        1.41560       -2.63470
H          0.44480        0.01800       -3.75140
H          1.86160        0.33800       -2.69970
H          1.06400       -2.36660        0.88400
H          0.67620       -0.05510        2.90080
H          2.25250       -0.84050        2.48100
H          0.96250       -1.78770        3.30480
H         -1.46770       -0.72990        1.58620
H         -1.09470       -2.37270        2.22180
H         -1.33240       -2.19450        0.50730
H         -0.89290        1.47370        0.26860
H          0.44060        2.29150       -0.59830
H          0.54240        1.99700        1.18770
H          3.76860        2.27050        1.47970
H          2.60260        2.77120       -1.30270
H          3.01070        4.01530        0.03990
H          5.73340        2.05870        0.18320
H          9.39860       -0.03580       -0.15880
H          8.16560       -2.16720       -0.33150
H          5.79850       -2.20080       -0.26400
