82

P          0.98070        0.09550       -0.02260
C         -0.13890       -0.23390        1.51230
C         -1.58450       -0.24590        1.50630
C         -2.48240        0.22060        0.40380
C         -2.31780       -0.70750        2.63050
C         -1.70460       -1.11450        3.80730
C         -2.49420       -1.68020        4.94720
C         -0.33930       -0.96400        3.90560
C          0.45840       -0.50450        2.83070
C          1.90110       -0.30830        3.25640
C          0.27570        1.78700       -0.50250
C          0.35030        2.92930        0.37070
C          1.13610        2.96590        1.63620
C         -0.36970        4.10940        0.08790
C         -1.16190        4.22810       -1.04860
C         -1.98590        5.46180       -1.32200
C         -1.21410        3.16190       -1.93640
C         -0.51720        1.96040       -1.69640
C         -0.75640        0.87740       -2.70830
C          0.70510       -1.48170       -1.08530
C         -0.25380       -2.55680       -0.85350
C         -1.00660       -2.90880        0.39850
C         -0.59130       -3.45270       -1.89560
C          0.00580       -3.40100       -3.14000
C         -0.38950       -4.35040       -4.24220
C          1.00170       -2.47630       -3.35730
C          1.37280       -1.54760       -2.37070
C          2.52290       -0.68820       -2.80630
Ni         3.44070        0.09550       -0.02260
Br         3.44070       -2.29660        0.97040
C          3.44070        2.08120       -0.84680
C          3.66780        2.39240       -2.12680
N          5.54070        0.09550       -0.02260
C          6.25040        1.16220       -0.53400
C          7.64010        1.13950       -0.67610
C          8.36090        0.02380       -0.27020
C          9.84580       -0.05780       -0.45740
C          7.66990       -1.03540        0.30330
C          6.27810       -0.98350        0.41580
H         -2.05700        1.02390       -0.16830
H         -3.32120        0.79060        0.86300
H         -2.91510       -0.60570       -0.18550
H         -3.39910       -0.75560        2.58760
H         -3.57840       -1.73140        4.71220
H         -2.35720       -1.06800        5.86160
H         -2.14900       -2.71680        5.15810
H          0.10840       -1.22080        4.86720
H          2.09170       -0.57750        4.31900
H          2.22130        0.74350        3.20750
H          2.61220       -0.88920        2.73570
H          1.73240        2.06310        1.73870
H          0.46200        3.10460        2.50900
H          1.84880        3.81950        1.60300
H         -0.32440        4.94770        0.77660
H         -1.88050        6.22550       -0.52230
H         -3.06310        5.18780       -1.38120
H         -1.68990        5.91860       -2.28900
H         -1.84200        3.27050       -2.81240
H         -1.46130        1.19420       -3.50990
H         -1.20680       -0.01300       -2.23250
H          0.18500        0.64060       -3.21540
H         -0.57030       -2.53720        1.32050
H         -0.88780       -3.99800        0.58010
H         -2.09580       -2.72170        0.28330
H         -1.34440       -4.21770       -1.73290
H         -1.20790       -5.03230       -3.92690
H          0.48530       -4.96460       -4.54190
H         -0.74400       -3.77640       -5.12570
H          1.49970       -2.47670       -4.32230
H          3.31330       -1.34060       -3.24200
H          3.02430       -0.23390       -1.96950
H          2.24650        0.05020       -3.58190
H          3.12780        2.88300       -0.19400
H          3.91870        1.64600       -2.86560
H          3.57300        3.42670       -2.44520
H          5.79860        2.05490       -0.89210
H          8.14430        1.98830       -1.12280
H         10.24300        0.84730       -0.96360
H         10.08580       -0.93870       -1.09160
H         10.34740       -0.17010        0.52550
H          8.20330       -1.91670        0.63980
H          5.85510       -1.85690        0.84150
