84

P          1.04390       -0.06300       -0.06410
C          0.07410       -0.66160        1.36060
C         -0.95360        0.05720        1.99270
C         -1.38990       -0.32310        3.27380
C         -0.78680       -1.39490        3.94260
F         -1.13340       -1.68660        5.22230
C          0.20020       -2.14240        3.30510
C          0.60290       -1.80280        2.00840
C          0.66740        1.70390       -0.02340
C          1.04070        2.50630        1.06740
C          0.67400        3.85790        1.10560
C         -0.06170        4.41610        0.05590
F         -0.42360        5.72280        0.09770
C         -0.43060        3.62410       -1.03410
C         -0.06970        2.27370       -1.07340
C          0.43370       -1.10120       -1.41990
C         -0.95270       -1.16540       -1.65270
C         -1.46730       -1.96900       -2.67640
C         -0.60270       -2.71030       -3.48430
F         -1.09940       -3.48310       -4.48160
C          0.77410       -2.66230       -3.25540
C          1.28860       -1.87550       -2.21840
Ni         3.50390       -0.06300       -0.06410
Br         3.47530        0.45480       -2.47980
C          3.71590       -0.54920        2.01650
C          2.85450       -0.45290        3.02760
P          5.96390       -0.06300       -0.06410
C          6.75420       -0.27370       -1.70590
C          7.02070        0.80500       -2.57470
C          7.32610        0.57550       -3.92680
C          7.34350       -0.72940       -4.44330
C          7.54590       -0.99380       -5.90690
C          7.11010       -1.80270       -3.58720
C          6.82430       -1.57720       -2.24760
C          6.48390        1.62750        0.29160
C          5.56900        2.65710        0.53840
C          6.02910        3.94300        0.84870
C          7.41490        4.21020        0.92280
C          7.93240        5.57270        1.28560
C          8.32560        3.17930        0.66100
C          7.86090        1.89820        0.35540
C          6.39230       -1.45000        1.02920
C          5.85630       -2.72200        0.75160
C          6.08340       -3.80070        1.60220
C          6.83030       -3.62770        2.77210
C          7.01200       -4.77810        3.72250
C          7.37630       -2.36290        3.05850
C          7.16220       -1.27370        2.18770
H         -1.37930        0.93640        1.53550
H         -2.15540        0.25030        3.77740
H          0.70080       -2.94580        3.83730
H          1.43610       -2.34820        1.57690
H          1.59340        2.08890        1.89600
H          0.94990        4.47150        1.95370
H         -1.00700        4.05390       -1.84410
H         -0.38020        1.67300       -1.91760
H         -1.64030       -0.60070       -1.03530
H         -2.53650       -2.01790       -2.84210
H          1.44420       -3.24160       -3.87710
H          2.35070       -1.88590       -2.04590
H          4.65000       -0.83910        2.41090
H          1.89180        0.00310        2.92010
H          3.17310       -0.72530        4.02930
H          6.93170        1.82960       -2.24890
H          7.48910        1.42010       -4.58250
H          7.68580       -0.05150       -6.47580
H          6.63890       -1.50090       -6.30800
H          8.42180       -1.65440       -6.06670
H          7.10410       -2.81940       -3.96790
H          6.58600       -2.44680       -1.66860
H          4.50570        2.46290        0.50310
H          5.31790        4.72690        1.05860
H          7.10450        6.28520        1.48380
H          8.55770        5.97580        0.46140
H          8.55560        5.50060        2.20330
H          9.39230        3.36470        0.70200
H          8.58480        1.11530        0.16150
H          5.22480       -2.88540       -0.11120
H          5.64820       -4.76290        1.35990
H          6.51430       -5.70020        3.34820
H          6.55230       -4.52170        4.70080
H          8.08910       -4.99630        3.86820
H          7.94550       -2.21660        3.96830
H          7.56960       -0.30830        2.44000
