79

P          1.06790       -0.05390       -0.04990
C          0.19970        1.48360        0.40180
C         -1.16970        1.76210        0.24640
C         -1.65970        3.05570        0.51720
C         -0.79010        4.08100        0.93700
C         -1.26460        5.47800        1.20810
C          0.56740        3.80350        1.07420
C          1.04790        2.53270        0.79490
C          0.69020       -0.12620       -1.81450
C          1.14020        0.89400       -2.66430
C          0.94630        0.80120       -4.04790
C          0.28880       -0.31120       -4.59600
C          0.11160       -0.43610       -6.08250
C         -0.19150       -1.31640       -3.73960
C          0.00730       -1.22600       -2.35700
C          0.38680       -1.21700        1.15700
C         -0.98580       -1.50530        1.08490
C         -1.56840       -2.49570        1.86280
C         -0.77940       -3.23710        2.74120
C         -1.40010       -4.35080        3.54380
C          0.59710       -2.96670        2.83240
C          1.18050       -1.96180        2.03850
Ni         3.52790       -0.05390       -0.04990
Br         3.52790        0.84270        2.38000
C          3.52790       -0.79820       -2.06690
C          4.48790       -0.51520       -2.93960
C          5.67790       -0.05390       -0.04990
N          6.44150        0.81940        0.56840
C          6.04640        2.10360        1.17200
C          6.61230        2.21710        2.59950
C          6.48380        3.31540        0.33460
C          7.84540        0.55260        0.34370
C          7.87120       -0.84110       -0.20690
N          6.54280       -1.02400       -0.72940
C          6.25330       -2.25680       -1.49180
C          7.00300       -2.21040       -2.84990
C          6.65680       -3.55260       -0.77600
H         -1.86280        1.02870       -0.12400
H         -2.71150        3.26600        0.37580
H         -2.35570        5.58240        1.03550
H         -0.73340        6.18740        0.53630
H         -1.03830        5.75170        2.26140
H          1.26320        4.58160        1.36910
H          2.10950        2.39220        0.85430
H          1.67810        1.74260       -2.26340
H          1.32970        1.58360       -4.68640
H          0.56140        0.42490       -6.61930
H         -0.96860       -0.48420       -6.33250
H          0.60980       -1.36290       -6.44120
H         -0.69880       -2.18080       -4.14720
H         -0.34380       -2.02560       -1.71840
H         -1.62560       -0.99740        0.37840
H         -2.62730       -2.69800        1.75430
H         -2.48880       -4.44300        3.33900
H         -1.26580       -4.15630        4.62680
H         -0.92220       -5.31610        3.27770
H          1.21930       -3.55160        3.49780
H          2.24810       -1.79850        2.08810
H          2.67440       -1.27870       -2.50870
H          5.32720        0.09880       -2.64950
H          4.40360       -0.84650       -3.97100
H          4.97810        2.25220        1.11370
H          7.72180        2.26790        2.57800
H          6.32030        1.33620        3.20960
H          6.24710        3.13920        3.09650
H          7.58260        3.39410        0.22960
H          6.11480        4.24530        0.82470
H          6.01270        3.26710       -0.67240
H          8.48800        0.61880        1.24470
H          8.20380        1.25920       -0.43800
H          7.97950       -1.55710        0.64270
H          8.69950       -0.98520       -0.92720
H          5.18320       -2.40210       -1.62140
H          8.09930       -2.29290       -2.70210
H          6.85680       -1.26340       -3.40110
H          6.67540       -3.04090       -3.50840
H          7.75410       -3.61660       -0.62570
H          6.35550       -4.41870       -1.41160
H          6.13290       -3.64640        0.19590
