81

P          0.94410       -0.08290        0.00130
C         -0.04550        0.15310       -1.55710
C         -1.08670       -0.70370       -1.98550
C         -1.67480       -0.55080       -3.24490
C         -1.22850        0.44050       -4.11750
F         -1.75700        0.54050       -5.36160
C         -0.23520        1.32570       -3.70400
C          0.32470        1.20530       -2.42730
C          0.41120       -1.80760        0.25720
C          0.85030       -2.82800       -0.61180
C          0.23280       -4.09060       -0.59380
C         -0.82530       -4.34240        0.28310
F         -1.46100       -5.54340        0.25850
C         -1.25140       -3.34730        1.16340
C         -0.63490       -2.08750        1.15680
C          0.10340        1.32700        0.76370
C         -1.30480        1.32390        0.80640
C         -2.02690        2.43810        1.21620
C         -1.34530        3.58910        1.60220
F         -2.04420        4.69060        1.96940
C          0.05460        3.60860        1.58810
C          0.78620        2.48540        1.17100
Ni         3.40410       -0.08290        0.00130
Br         3.40410       -0.52290        2.55370
C          3.40410        0.28240       -2.11740
C          4.42200        0.52520       -2.94230
C          5.55410       -0.08290        0.00130
N          6.32060        1.03580       -0.08390
C          5.83350        2.41670       -0.14510
C          4.92360        2.75460        1.04880
C          5.62630        2.67690        2.41180
C          4.65670        3.05500        3.53470
C          7.59830        0.59070       -0.04840
C          7.59360       -0.78020        0.02080
C          8.77780       -1.52360        0.02350
C          9.99490       -0.82570       -0.01790
C         10.00740        0.58400       -0.06260
C          8.79990        1.31130       -0.08330
N          6.31940       -1.22330        0.07010
C          5.91920       -2.65460        0.05310
C          5.81100       -3.26030       -1.35650
C          5.93140       -2.46900       -2.51090
C          5.76260       -3.01000       -3.78900
C          5.49870       -4.36980       -3.94580
C          5.41940       -5.19240       -2.82070
C          5.56590       -4.64620       -1.53370
H         -1.45800       -1.50720       -1.37300
H         -2.46010       -1.22660       -3.55670
H          0.12100        2.08910       -4.38580
H          1.11200        1.89810       -2.15270
H          1.62000       -2.63510       -1.34790
H          0.54270       -4.86180       -1.28830
H         -2.08930       -3.53740        1.82380
H         -1.02720       -1.31860        1.80480
H         -1.87090        0.45500        0.46960
H         -3.11020        2.41640        1.20970
H          0.57650        4.51160        1.87660
H          1.85480        2.52960        1.12060
H          2.46350        0.23280       -2.60240
H          5.44570        0.61350       -2.62230
H          4.20150        0.65690       -4.00160
H          5.24180        2.54690       -1.07400
H          6.67750        3.13720       -0.17800
H          4.06390        2.05720        1.04480
H          4.53720        3.78640        0.90560
H          6.48790        3.37810        2.43270
H          6.00030        1.64600        2.59330
H          4.28240        4.09140        3.39100
H          5.16930        2.99920        4.51840
H          3.78790        2.36320        3.55130
H          8.77620       -2.60540        0.05320
H         10.92720       -1.37750       -0.01540
H         10.95540        1.10720       -0.09330
H          8.82110        2.39080       -0.12880
H          4.95640       -2.79100        0.58570
H          6.67220       -3.23990        0.62500
H          6.14180       -1.42370       -2.43110
H          5.83290       -2.37100       -4.65990
H          5.36670       -4.78340       -4.93860
H          5.23490       -6.25420       -2.95240
H          5.49700       -5.30680       -0.67840
