70

P          0.95090       -0.08620        0.01280
C          0.37580        1.18950       -1.19040
C         -0.93410        1.46800       -1.63740
C         -1.15670        2.44210       -2.63580
C         -0.07510        3.14480       -3.21330
O         -0.21490        4.08920       -4.17850
C         -1.38470        4.44530       -4.80870
C          1.20960        2.83910       -2.79940
C          1.42320        1.87480       -1.82730
C          0.58070       -1.62640       -0.85560
C          0.62830       -1.70330       -2.25580
C          0.38790       -2.91790       -2.90630
C          0.11130       -4.07660       -2.16470
O         -0.11700       -5.28450       -2.76720
C         -0.15070       -5.50650       -4.12310
C          0.07450       -4.01010       -0.76960
C          0.29580       -2.78730       -0.11630
C          0.03720        0.33370        1.51630
C         -1.36450        0.28560        1.48600
C         -2.12060        0.38870        2.64630
C         -1.49070        0.51040        3.89290
O         -2.20010        0.55090        5.05350
C         -3.57930        0.47780        5.15030
C         -0.08600        0.55280        3.93850
C          0.67750        0.46750        2.75750
Ni         3.41090       -0.08620        0.01280
Br         3.39740        2.35640        0.64350
C          3.54750       -2.13820       -0.55480
C          4.63840       -2.73560       -1.06030
C          5.56090       -0.08620        0.01280
N          6.26650        0.82110       -0.56470
C          5.73860        1.77880       -1.51220
C          7.67130        0.51310       -0.48100
C          7.70830       -0.52640        0.62560
N          6.37860       -1.09370        0.59350
C          5.91410       -1.92880        1.68780
H         -1.79410        0.94840       -1.27370
H         -2.16720        2.63490       -2.96400
H         -1.16970        5.26070       -5.53150
H         -2.12480        4.81570       -4.06780
H         -1.79060        3.57670       -5.36760
H          2.06300        3.34430       -3.24650
H          2.43810        1.63690       -1.60400
H          0.85700       -0.83380       -2.85290
H          0.43100       -2.93510       -3.98670
H         -0.37280       -6.57970       -4.31490
H          0.82930       -5.26280       -4.58150
H         -0.95290       -4.89470       -4.59190
H         -0.12260       -4.89850       -0.18700
H          0.27910       -2.75880        0.96560
H         -1.90080        0.10260        0.57990
H         -3.19770        0.32740        2.56050
H         -3.88010        0.51250        6.21700
H         -3.95370       -0.47560        4.71520
H         -4.04620        1.33680        4.62240
H          0.41440        0.61330        4.89680
H          1.75730        0.43840        2.82370
H          2.70630       -2.78770       -0.53630
H          5.56650       -2.22190       -1.27400
H          4.61310       -3.77290       -1.36490
H          4.64710        1.67920       -1.63240
H          6.14090        1.52690       -2.52150
H          6.03770        2.81150       -1.25700
H          8.31600        1.39200       -0.26940
H          7.96780        0.04130       -1.44610
H          7.79370        0.04390        1.58190
H          8.53840       -1.26010        0.56830
H          6.69080       -2.00310        2.48170
H          5.69810       -2.95410        1.33520
H          5.00450       -1.49080        2.15480
