75

P          1.06140       -0.06430        0.04580
C          0.18370       -0.57450       -1.47800
C         -0.11040        0.38730       -2.47110
C         -0.57790        0.00670       -3.72900
C         -0.73670       -1.34250       -4.03570
F         -1.15440       -1.70870       -5.27290
C         -0.42940       -2.31350       -3.08060
C          0.03570       -1.93670       -1.81350
C          0.63950       -1.39210        1.19060
C          1.61680       -2.08090        1.91890
C          1.24470       -3.12940        2.77150
C         -0.10030       -3.50290        2.88610
F         -0.45780       -4.52820        3.69820
C         -1.07560       -2.82370        2.15740
C         -0.70990       -1.77020        1.32070
C          0.41340        1.61390        0.19560
C         -0.98220        1.78840        0.27840
C         -1.54410        3.06410        0.22970
C         -0.71930        4.18050        0.09790
F         -1.26860        5.41760        0.01340
C          0.67060        4.01870        0.03010
C          1.23720        2.73710        0.08050
Ni         3.52140       -0.06430        0.04580
Br         3.52140        0.92230        2.44050
C          3.52140       -0.88330       -1.94210
C          4.18000       -0.90970       -3.10330
P          5.98140       -0.06430        0.04580
C          6.90860       -0.88060        1.42580
C          7.29590       -2.24320        1.27790
C          7.78400       -2.99950        2.33720
C          7.91470       -2.42520        3.58800
F          8.36670       -3.17770        4.62360
C          7.55220       -1.08870        3.77790
C          7.03540       -0.32570        2.71190
C          6.56630       -0.94430       -1.43460
C          7.35330       -0.24960       -2.37370
C          7.74400       -0.87700       -3.56730
C          7.38100       -2.19720       -3.82280
F          7.74410       -2.79130       -4.99170
C          6.61470       -2.90780       -2.89670
C          6.20560       -2.28780       -1.70980
C          6.48100        1.62860        0.44520
C          5.55590        2.67250        0.55880
C          5.99150        3.99360        0.71180
C          7.35820        4.28530        0.72820
F          7.77870        5.56990        0.83900
C          8.29070        3.25450        0.60000
C          7.85580        1.93410        0.45930
H          0.05520        1.44180       -2.30720
H         -0.78340        0.76260       -4.47710
H         -0.52000       -3.36150       -3.33470
H          0.32150       -2.71560       -1.12080
H          2.66010       -1.81370        1.82900
H          1.99840       -3.65920        3.33760
H         -2.11700       -3.11460        2.23140
H         -1.48290       -1.27060        0.75410
H         -1.64560        0.93810        0.33650
H         -2.62100        3.18040        0.26720
H          1.30460        4.88630       -0.09000
H          2.30380        2.62170       -0.02130
H          2.58830       -1.40840       -2.05030
H          5.07400       -0.37980       -3.33070
H          3.74290       -1.48590       -3.92190
H          7.20190       -2.79580        0.37740
H          8.03190       -4.04600        2.18030
H          7.64010       -0.65580        4.76310
H          6.71110        0.68350        2.91310
H          7.61550        0.78330       -2.21160
H          8.31760       -0.32290       -4.30060
H          6.31920       -3.92900       -3.10290
H          5.57090       -2.84080       -1.02760
H          4.50240        2.48110        0.48580
H          5.26760        4.79440        0.78710
H          9.35010        3.47960        0.58470
H          8.59390        1.15320        0.32040
