35

P          1.06030        0.07970       -0.00250
Cl        -0.44340       -0.79810        1.12330
Cl         1.17700        1.55080        1.45600
Cl        -0.50130        0.32100       -1.34510
Ni         3.52030        0.07970       -0.00250
Br         3.35460        1.89230       -1.71920
C          3.53360       -1.12280        1.69460
C          4.08960       -0.59240        2.78340
C          5.67030        0.07970       -0.00250
N          6.40880       -0.94070        0.23980
C          5.94530       -2.30940        0.37270
C          7.81250       -0.63350        0.08430
C          7.81830        0.82130       -0.40910
N          6.43070        1.22170       -0.34520
C          6.04110        2.53720        0.09360
C          6.87850        3.65300       -0.12880
C          6.51550        4.93160        0.32440
C          5.30730        5.12120        1.00180
C          4.47300        4.03090        1.24450
C          4.83710        2.75910        0.80660
H          3.11580       -2.12770        1.71050
H          4.49720        0.41060        2.73580
H          4.14770       -1.12930        3.71780
H          4.86440       -2.40990        0.16780
H          6.23580       -2.74150        1.34880
H          6.39560       -2.91620       -0.44360
H          8.27180       -1.28040       -0.69590
H          8.32970       -0.76990        1.05590
H          8.14980        0.87990       -1.46790
H          8.47450        1.44100        0.24130
H          7.81720        3.54370       -0.65220
H          7.16680        5.77640        0.14980
H          5.02610        6.10520        1.35020
H          3.53790        4.17400        1.77550
H          4.16170        1.95140        1.02880
