88

P          1.07340       -0.02160       -0.06440
C          0.44020       -1.85100       -0.87440
C         -0.08550       -2.09460       -2.25300
C         -0.26280       -1.12740       -3.34480
C         -0.34310       -3.40070       -2.83580
C         -0.09910       -4.55530       -2.17150
C         -0.17380       -5.93000       -2.79010
C          0.32880       -4.42920       -0.88080
C          0.56060       -3.18730       -0.21980
C          1.00600       -3.53510        1.13960
C          0.36830       -0.35360        1.70660
C          1.11320       -0.14290        2.92210
C          2.58250        0.15520        3.04110
C          0.48940       -0.14500        4.19850
C         -0.88230       -0.35960        4.34610
C         -1.54680       -0.23970        5.69960
C         -1.61870       -0.63990        3.22050
C         -1.06070       -0.66520        1.92080
C         -2.04320       -1.01990        0.82540
C          0.51140        1.73230       -0.72550
C         -0.40190        2.15080       -1.82300
C         -1.30800        1.34260       -2.70740
C         -0.55710        3.49970       -2.17510
C         -0.01290        4.51880       -1.45480
C         -0.25430        5.95110       -1.87100
C          0.73640        4.20610       -0.34340
C          0.98740        2.85850        0.04960
C          1.72670        2.71350        1.33700
Ni         3.53340       -0.02160       -0.06440
Br         3.53340       -2.24530        1.26330
C          3.53340        1.82440       -1.16660
C          3.40020        1.76330       -2.48890
N          5.63340       -0.02160       -0.06440
C          6.36920       -1.22390       -0.03020
C          5.83730       -2.59360       -0.36170
C          7.77590       -1.26350        0.03350
C          8.52070       -0.11430        0.01390
C         10.02370       -0.14600        0.03220
C          7.85070        1.07960       -0.07350
C          6.43850        1.14010       -0.12340
C          5.95690        2.56410       -0.07920
H          0.40090       -0.28010       -3.11670
H         -1.35910       -1.03520       -3.53240
H          0.12810       -1.47870       -4.32690
H         -0.68570       -3.50600       -3.86700
H         -0.52120       -5.91980       -3.84350
H         -0.81210       -6.61400       -2.19600
H          0.85660       -6.36460       -2.79440
H          0.49490       -5.37200       -0.38090
H          0.50050       -4.38250        1.63020
H          1.04950       -2.68970        1.82840
H          1.95920       -4.06130        0.92680
H          3.09480        0.22660        2.08330
H          3.04310       -0.65440        3.65060
H          2.73920        1.10940        3.59520
H          1.06350        0.06360        5.08530
H         -0.82760        0.01620        6.50290
H         -2.06100       -1.18620        5.97570
H         -2.30550        0.56990        5.67380
H         -2.67400       -0.83220        3.34730
H         -3.03680       -1.30050        1.25880
H         -1.73570       -1.94570        0.32480
H         -2.21000       -0.19260        0.12130
H         -2.23200        1.90150       -2.98440
H         -0.88690        1.24960       -3.73400
H         -1.78320        0.52130       -2.14160
H         -1.20680        3.79010       -3.00910
H         -0.87700        6.01100       -2.79120
H          0.71260        6.44880       -2.09120
H         -0.78660        6.49320       -1.06840
H          1.12620        5.02140        0.24850
H          2.03040        3.68510        1.77660
H          2.63860        2.12230        1.21630
H          1.03390        2.25880        2.06500
H          3.55400        2.80330       -0.70820
H          3.33910        0.79810       -2.97900
H          3.36540        2.67220       -3.08070
H          4.85160       -2.54910       -0.86080
H          5.92050       -3.28100        0.51000
H          6.45290       -3.04910       -1.16870
H          8.30390       -2.21250        0.03010
H         10.41390       -1.18430        0.09400
H         10.40530        0.42600        0.90310
H         10.41540        0.31320       -0.90130
H          8.45560        1.98070       -0.09620
H          6.75610        3.28460        0.20210
H          5.20220        2.68810        0.72380
H          5.70000        2.91440       -1.09820
