61

P          1.04730       -0.01520       -0.08680
C          0.08430       -1.54190       -0.01670
C         -1.30900       -1.59020        0.15560
C         -1.95080       -2.82710        0.31550
C         -1.20740       -4.01400        0.31750
F         -1.82670       -5.20860        0.49670
C          0.17740       -3.96930        0.15130
C          0.81880       -2.73990       -0.01240
C          0.45170        0.58340        1.49930
C          0.80050       -0.08280        2.69420
C          0.29980        0.36880        3.91670
C         -0.57380        1.46700        3.96540
F         -1.07580        1.89410        5.14910
C         -0.92860        2.11970        2.77460
C         -0.41510        1.67880        1.55460
C          0.51030        0.57220       -1.71970
C         -0.42700       -0.08450       -2.54880
C         -0.92740        0.53220       -3.69900
C         -0.48040        1.80750       -4.05460
F         -0.98510        2.41330       -5.15920
C          0.46250        2.46050       -3.26450
C          0.94780        1.84990       -2.10260
Ni         3.50730       -0.01520       -0.08680
Br         3.50730       -1.35980       -2.30040
C          3.50730        1.10090        1.75080
C          4.43280        1.29530        2.68360
P          5.96730       -0.01520       -0.08680
N          7.39790        0.70230        0.71000
C          8.66850        0.62280        0.01110
C          7.08320        2.12000        1.07130
O          6.18830       -1.60460        0.53190
C          5.94010       -1.61050        1.90730
O          6.33460        0.13920       -1.74330
C          5.71240        1.32290       -2.20660
H         -1.89130       -0.67980        0.18560
H         -3.02140       -2.86770        0.46170
H          0.75930       -4.88250        0.16750
H          1.89720       -2.72510       -0.11180
H          1.46820       -0.93840        2.66920
H          0.57590       -0.13930        4.83050
H         -1.60590        2.96210        2.80260
H         -0.71330        2.18380        0.63850
H         -0.84050       -1.05390       -2.30900
H         -1.67380        0.03500       -4.29810
H          0.79780        3.45290       -3.53310
H          1.64690        2.39280       -1.47930
H          2.58830        1.60790        1.97060
H          5.39620        0.84810        2.66320
H          4.18270        1.91480        3.54360
H          8.89670       -0.42350       -0.25250
H          9.46090        0.98170        0.71140
H          8.67690        1.28750       -0.87950
H          6.97610        2.22680        2.16920
H          6.12920        2.49990        0.63480
H          7.87190        2.84860        0.78430
H          6.18910       -2.61340        2.31060
H          4.86040       -1.43620        2.11560
H          6.61080       -0.92390        2.47090
H          6.20800        1.64990       -3.14150
H          5.80600        2.18930       -1.51840
H          4.63970        1.15420       -2.43160
