71

P          0.97390        0.07050       -0.06600
C          0.13760        0.97450        1.28690
C         -0.31420        0.31730        2.45890
C         -0.74480        1.04020        3.58040
C         -1.18720        0.33450        4.83340
C         -0.72450        2.43830        3.54430
C         -0.27070        3.10360        2.40550
C          0.16440        2.37910        1.28980
C          0.50390        0.97660       -1.55650
C         -0.86140        1.13350       -1.84120
C         -1.29260        1.83150       -2.97330
C         -2.75910        1.97240       -3.26480
C         -0.33630        2.39240       -3.83000
C          1.02350        2.25930       -3.55050
C          1.45050        1.55040       -2.41530
C          0.34420       -1.59910        0.25620
C         -1.05930       -1.78590        0.33530
C         -1.61290       -2.99730        0.75950
C         -3.10250       -3.14130        0.93600
C         -0.75810       -4.06120        1.06800
C          0.62910       -3.90480        0.95580
C          1.18330       -2.67830        0.56240
Ni         3.43390        0.07050       -0.06600
Br         3.43390       -1.36000       -2.22510
C          3.43390        1.25800        1.72640
C          3.27070        2.57460        1.59070
C          5.58390        0.07050       -0.06600
N          6.50290       -0.53540       -0.96120
C          6.53940       -1.36720       -2.18540
C          7.75510       -0.23890       -0.50790
C          9.09400       -0.65020       -1.11120
C          7.67570        0.50280        0.60920
C          8.87810        1.01800        1.38530
N          6.37550        0.70910        0.91300
C          6.09770        1.50390        2.12120
H         -0.28390       -0.75790        2.55080
H         -1.14350       -0.77000        4.72320
H         -2.23040        0.62190        5.08330
H         -0.52280        0.62300        5.67570
H         -1.03440        3.01020        4.41200
H         -0.22390        4.18460        2.40150
H          0.56280        2.92220        0.44300
H         -1.60210        0.71760       -1.17970
H         -3.37970        1.47690       -2.48640
H         -2.99090        1.49840       -4.24140
H         -3.04050        3.04520       -3.30080
H         -0.65600        2.94390       -4.71010
H          1.75400        2.70880       -4.21310
H          2.50820        1.46460       -2.20910
H         -1.72620       -0.96110        0.14380
H         -3.64740       -2.21660        0.64350
H         -3.32780       -3.33590        2.00710
H         -3.49180       -3.98370        0.32880
H         -1.17170       -5.00200        1.40860
H          1.27810       -4.73130        1.21050
H          2.25690       -2.55790        0.52620
H          3.43150        0.79660        2.70820
H          3.23320        3.00180        0.59360
H          3.20630        3.22140        2.45830
H          5.69060       -1.72450       -2.69650
H          7.07350       -2.31580       -1.95730
H          7.07680       -0.81220       -2.98470
H          9.04610       -1.26350       -2.02840
H          9.66460       -1.24230       -0.36480
H          9.67340        0.26100       -1.37040
H          9.84840        0.72610        0.94020
H          8.86540        0.61330        2.41920
H          8.85770        2.12810        1.41240
H          6.99010        1.82270        2.68610
H          5.56410        0.89940        2.87530
H          5.66680        2.47680        1.83880
