61

P          1.08900        0.04450       -0.01040
C          0.39140        1.38680        1.00430
C         -0.94430        1.61000        1.46090
C         -2.10310        0.72140        1.13200
C         -1.22930        2.76370        2.24590
C         -0.22750        3.68500        2.54540
C          1.06940        3.48070        2.09340
C          1.37440        2.34270        1.34770
C          0.67300        0.52350       -1.76680
C         -0.09390        1.63580       -2.29530
C         -0.69100        2.81480       -1.56960
C         -0.35840        1.69420       -3.68220
C          0.11750        0.73130       -4.55890
C          0.86620       -0.32530       -4.07550
C          1.13370       -0.42840       -2.71010
C          0.74410       -1.62240        0.67050
C          1.06150       -2.09590        1.97340
C          1.67800       -1.24430        3.03890
C          0.83080       -3.45030        2.30010
C          0.28880       -4.33360        1.37020
C         -0.05260       -3.87370        0.09750
C          0.15720       -2.53950       -0.24090
Ni         3.54900        0.04450       -0.01040
Br         3.51960       -2.42470       -0.43900
C          3.64090        1.16460       -1.77330
C          3.71180        2.48930       -1.85300
N          5.64900        0.04450       -0.01040
C          6.30370       -1.07290        0.43560
C          7.69510       -1.11320        0.52910
Cl         8.49870       -2.56650        1.09750
C          8.43290        0.01480        0.18880
C          7.76960        1.16200       -0.23920
C          6.37300        1.15910       -0.33490
H         -1.84230       -0.04850        0.38450
H         -2.91870        1.35400        0.71160
H         -2.48100        0.24830        2.06260
H         -2.22670        2.95140        2.59790
H         -0.45980        4.57040        3.11990
H          1.84330        4.20670        2.30970
H          2.39640        2.22430        1.00950
H         -0.40520        2.97290       -0.54370
H         -1.79860        2.76090       -1.63200
H         -0.36190        3.75330       -2.06530
H         -0.93630        2.51010       -4.10070
H         -0.10390        0.80740       -5.61530
H          1.23340       -1.07590       -4.76130
H          1.71010       -1.28210       -2.38980
H          1.84320       -0.20190        2.71590
H          2.65330       -1.68040        3.34560
H          0.99970       -1.23990        3.91970
H          1.09020       -3.83040        3.28020
H          0.13410       -5.37300        1.63100
H         -0.46720       -4.56730       -0.62260
H         -0.10420       -2.23970       -1.24080
H          3.68030        0.59100       -2.69540
H          3.71280        3.10510       -0.96540
H          3.79870        2.95130       -2.83400
H          5.76320       -1.94660        0.74720
H          9.51180        0.00660        0.27320
H          8.33350        2.05340       -0.48020
H          5.88980        2.07040       -0.63110
