80

P          1.06720        0.06200        0.04050
C          0.10710        1.03660       -1.28680
C         -1.42370        0.91490       -1.25780
C          0.44660        2.53900       -1.09470
C          0.59620        0.68950       -2.70580
C          0.74230       -1.66000       -0.50700
C          1.79850       -2.55680       -0.67000
C          1.59160       -3.88230       -1.06140
C          0.29470       -4.35430       -1.24540
C         -0.78390       -3.50640       -1.00560
C         -0.56380       -2.17810       -0.62690
C          0.34410        0.61690        1.61210
C         -0.41370       -0.31300        2.34500
C         -0.97830        0.03320        3.57340
C         -0.79160        1.31490        4.08960
C         -0.03780        2.25160        3.37640
C          0.53050        1.90760        2.14360
Ni         3.52720        0.06200        0.04050
Br         3.52720       -0.73710       -2.42310
C          3.52720        0.72540        2.08560
C          4.33750        1.34040        2.93610
P          5.98720        0.06200        0.04050
C          6.96060        0.57890        1.49530
C          6.81550       -0.19690        2.67380
C          7.23660        0.29430        3.91370
C          7.80520        1.56150        3.99630
C          7.98630        2.32890        2.84730
C          7.58020        1.84000        1.58970
C          6.50820       -1.70170       -0.04730
C          5.70640       -2.71200       -0.61380
C          6.13480       -4.03510       -0.70350
C          7.38760       -4.39610       -0.20940
C          8.21020       -3.42320        0.35390
C          7.78550       -2.09200        0.42600
C          6.41250        1.15590       -1.36380
C          7.18560        0.79760       -2.51560
C          7.66440       -0.58420       -2.86430
C          7.57140        1.80410       -3.42120
C          7.18990        3.12840       -3.23270
C          6.40690        3.47520       -2.13800
C          6.02270        2.50110       -1.21590
H         -1.82120        1.11760       -0.24280
H         -1.77620       -0.04520       -1.65840
H         -1.86870        1.65930       -1.95540
H          0.00380        2.95320       -0.17560
H          0.03810        3.15660       -1.92520
H          1.54970        2.69780       -1.07930
H          0.47910       -0.38920       -2.93200
H          1.64830        1.00070       -2.83520
H          0.03730        1.26700       -3.47450
H          2.78530       -2.23100       -0.45640
H          2.43540       -4.54700       -1.19820
H          0.12550       -5.38500       -1.53090
H         -1.79390       -3.88210       -1.09370
H         -1.42760       -1.58880       -0.39040
H         -0.56720       -1.31720        1.97540
H         -1.55380       -0.69700        4.12860
H         -1.22470        1.57870        5.04620
H          0.11380        3.24150        3.78610
H          1.13570        2.64020        1.63080
H          2.57930        0.55690        2.54400
H          5.27330        1.74980        2.68160
H          3.98270        1.54820        3.94450
H          6.28920       -1.14370        2.65420
H          7.05930       -0.28430        4.81350
H          8.06670        1.96970        4.96930
H          8.39530        3.32660        2.92610
H          7.67080        2.49450        0.74150
H          4.75500       -2.48860       -1.01280
H          5.49800       -4.78150       -1.16140
H          7.72280       -5.41950       -0.28500
H          9.18540       -3.69780        0.73830
H          8.46720       -1.37520        0.85920
H          7.17250       -1.37830       -2.31330
H          8.76460       -0.65640       -2.73280
H          7.41600       -0.79990       -3.92540
H          8.17720        1.56000       -4.28720
H          7.50370        3.88670       -3.93890
H          6.11550        4.50710       -1.99170
H          5.44450        2.81030       -0.35350
