36

P          1.27500        0.00000        0.00000
O          0.31580        1.37610       -0.41580
C         -1.06860        1.17890       -0.34210
C         -1.39970       -0.25270        0.02780
C         -2.92710       -0.42770        0.05270
C         -0.72000       -1.16830       -1.06000
O          0.68430       -0.95540       -1.27550
O          0.63150       -0.13610        1.56450
C         -0.75120       -0.50370        1.43990
Ni         3.73500        0.00030       -0.00050
Br         3.52750       -2.39050        0.66660
C          3.62730        1.97440       -0.63700
C          3.17420        2.94190        0.15000
N          5.83500        0.00060       -0.00090
C          6.52430        1.16470       -0.23850
C          7.92110        1.18480       -0.30660
Cl         8.76800        2.66780       -0.71210
C          8.63440        0.01630       -0.07010
C          7.94480       -1.15720        0.20540
C          6.54660       -1.15260        0.21090
H         -1.50190        1.43790       -1.33400
H         -1.48400        1.89030        0.40690
H         -3.35790       -0.18280       -0.94700
H         -3.38200        0.27100        0.78870
H         -3.19780       -1.46490        0.31850
H         -1.22460       -0.96580       -2.02850
H         -0.89050       -2.22940       -0.79940
H         -1.30380        0.11580        2.17830
H         -0.88110       -1.56760        1.72480
H          3.91360        2.20230       -1.66180
H          2.86410        2.71840        1.16270
H          3.11060        3.95980       -0.22550
H          6.02300        2.09270       -0.43230
H          9.71660        0.01610       -0.10490
H          8.48940       -2.07150        0.40360
H          6.06730       -2.08640        0.41730
