79

P          1.05940        0.06000        0.05350
C          0.38430       -0.92140       -1.29990
C         -0.82860       -1.62440       -1.32760
C         -1.15710       -2.38640       -2.46540
C         -0.29310       -2.43260       -3.56920
C          0.90390       -1.72400       -3.54520
C          1.23940       -0.98140       -2.41720
C          0.50460       -1.08820        1.39360
C          0.71720       -2.47830        1.50460
C          0.26200       -3.19110        2.62570
C         -0.44950       -2.54550        3.63600
C         -0.72560       -1.19060        3.51990
C         -0.25850       -0.47910        2.41710
C          0.26790        1.70550        0.10320
C          0.49640        2.62910        1.18850
C          1.46410        2.38390        2.31670
C         -0.25830        3.80640        1.24700
C         -1.20850        4.10590        0.27350
C         -1.41690        3.21450       -0.78640
C         -0.68110        2.04370       -0.88510
Ni         3.51940        0.06000        0.05350
Br         3.51940       -2.52990        0.03610
C          3.51940        2.21000        0.06800
C          2.96030        2.87570       -0.94250
P          5.97940        0.06000        0.05350
N          6.88790       -1.26480       -0.75680
C          6.40010       -1.29640       -2.14790
C          8.35750       -1.46870       -0.77710
C          9.07960       -1.30060        0.54610
N          8.87280        0.00510        1.20050
C          9.08870        1.33900        0.62730
C          8.37300        1.56180       -0.69590
N          6.88910        1.49810       -0.62340
C          6.29930        2.82430       -0.46530
N          6.31220       -0.74550        1.65490
C          5.22780       -1.50000        2.27580
C          6.96280        0.16130        2.63670
C          8.46780       -0.04170        2.59410
H         -1.49900       -1.60730       -0.48140
H         -2.07850       -2.94880       -2.49590
H         -0.54370       -3.01800       -4.44420
H          1.57790       -1.75180       -4.39450
H          2.18440       -0.44440       -2.41930
H          1.20160       -3.04830        0.75010
H          0.45310       -4.25260        2.71060
H         -0.80430       -3.09370        4.49960
H         -1.29950       -0.68250        4.28610
H         -0.50940        0.56530        2.38450
H          2.04010        1.44690        2.21850
H          0.92570        2.35720        3.28720
H          2.18680        3.22860        2.35700
H         -0.10940        4.50440        2.06700
H         -1.78520        5.01280        0.34870
H         -2.16520        3.44860       -1.53020
H         -0.88920        1.36080       -1.69310
H          4.03470        2.74840        0.84630
H          2.52290        2.32900       -1.77090
H          3.01290        3.95900       -0.97890
H          5.28780       -1.29390       -2.19250
H          6.74020       -2.21250       -2.67680
H          6.76550       -0.40640       -2.71430
H          8.86610       -0.95660       -1.60340
H          8.52820       -2.52840       -1.07520
H         10.16340       -1.49650        0.41390
H          8.67650       -2.11740        1.18520
H         10.17710        1.52370        0.51730
H          8.69260        2.11950        1.31800
H          8.75730        0.99030       -1.53470
H          8.71060        2.56230       -1.04110
H          6.96350        3.65180       -0.78850
H          6.07590        3.02400        0.59550
H          5.48600        2.92420       -1.20220
H          4.26150       -0.96370        2.18350
H          5.40270       -1.69460        3.35500
H          5.26060       -2.52940        1.88020
H          6.69530        1.21510        2.42500
H          6.68860       -0.04450        3.69710
H          8.75060       -1.01920        3.04580
H          9.00240        0.72440        3.20000
