65

P          1.06100       -0.07560       -0.02380
C          0.58840       -0.55230        1.66750
C          0.41320       -1.91620        1.98510
C         -0.07680       -2.30200        3.23470
C         -0.37310       -1.33750        4.19620
C         -0.18230        0.01470        3.90620
C          0.28240        0.40710        2.64590
C          0.61120        1.63830       -0.60370
C          0.94830        2.79930        0.12230
C          0.61460        4.08020       -0.32220
C         -0.09410        4.24650       -1.50410
C         -0.47230        3.12810       -2.23730
C         -0.12540        1.84430       -1.80000
C         -0.19150       -1.08260       -0.95290
C         -1.66640       -1.04720       -0.75640
C         -2.33030       -0.15380        0.08570
C         -3.72250       -0.23490        0.20950
C         -4.44360       -1.20330       -0.50050
C         -3.78370       -2.09170       -1.34310
C         -2.40120       -2.01010       -1.47370
Ni         3.52100       -0.07560       -0.02380
Br         3.52100        1.69910        1.86260
C          3.52100       -1.54880       -1.58970
C          2.63340       -2.27960       -2.26020
N          5.62100       -0.07560       -0.02380
C          6.40280       -1.07710       -0.25780
C          5.97790       -2.52040       -0.21220
C          6.76990       -3.53470       -0.77900
C          6.37880       -4.88460       -0.67990
C          5.21290       -5.22640       -0.00310
C          4.43470       -4.23790        0.60370
C          4.82190       -2.89500        0.50640
N          7.76200       -0.72160       -0.21600
C          7.83450        0.69790       -0.05970
C          6.40880        1.06280        0.38530
H          0.61580       -2.69570        1.26640
H         -0.23920       -3.35070        3.45150
H         -0.75690       -1.63840        5.16250
H         -0.41370        0.76170        4.65350
H          0.38540        1.45800        2.44790
H          1.44930        2.76710        1.04860
H          0.90180        4.94640        0.26150
H         -0.35660        5.24010       -1.84360
H         -1.03740        3.25520       -3.15160
H         -0.45610        1.04190       -2.42900
H          0.06790       -2.13180       -0.72220
H         -0.00730       -0.94850       -2.03690
H         -1.78500        0.59520        0.63850
H         -4.23940        0.45130        0.86220
H         -5.51810       -1.26350       -0.39630
H         -4.33220       -2.84700       -1.89440
H         -1.89630       -2.71830       -2.12850
H          4.51540       -1.71330       -1.97250
H          1.59660       -2.29950       -2.11470
H          2.99660       -2.93700       -3.04780
H          7.68230       -3.29810       -1.30400
H          6.98830       -5.65260       -1.13100
H          4.91360       -6.26420        0.07850
H          3.54320       -4.50640        1.14760
H          4.20870       -2.15250        1.00150
H          8.56070       -1.34810       -0.38130
H          8.07300        1.10790       -1.06520
H          8.58340        1.03020        0.68840
H          6.09400        1.99600       -0.13220
H          6.33060        1.16700        1.48580
