86

P          1.02370       -0.08960       -0.03750
C         -0.11820        1.34470        0.52560
C          0.30240        1.82230        1.95290
C          1.48380        2.78660        2.05030
C          1.16660        4.06770        1.30530
C          0.86910        3.72340       -0.15180
C         -0.29060        2.69450       -0.25560
C          0.43880        0.08850       -1.98170
C          0.58560        1.16410       -3.18660
C          1.79910        1.10830       -4.18040
C          2.41850       -0.28920       -4.38990
C          2.20490       -1.25430       -3.21270
C          0.71520       -1.19830       -2.79010
C          0.28540       -1.69490        0.89920
C          0.54440       -3.03690        0.35870
C          1.42670       -3.41610       -0.78890
C          0.05530       -4.22100        0.94030
C         -0.61840       -4.22370        2.12570
C         -0.98490       -5.51840        2.80230
C         -0.87090       -3.02540        2.73610
C         -0.47610       -1.77400        2.19490
C         -0.81130       -0.69540        3.19890
Ni         3.48370       -0.08960       -0.03750
Br         3.27100        1.59330       -1.66840
C          3.48000       -1.56590        1.53990
C          2.60060       -1.80500        2.44460
C          5.63370       -0.08960       -0.03750
N          6.44060        0.81170       -0.55930
C          6.13660        2.07700       -1.18000
C          7.82640        0.47000       -0.34690
C          7.78300       -0.52290        0.76650
N          6.47560       -1.09470        0.58810
C          6.28140       -2.50030        0.80440
C          6.92890       -3.10660        1.90750
C          6.60420       -4.39830        2.31160
C          5.62220       -5.11480        1.62780
C          5.00120       -4.55680        0.50790
C          5.33330       -3.26380        0.07780
H         -1.11580        0.87320        0.53710
H          0.67850        1.00430        2.52480
H         -0.57470        2.31400        2.43780
H          2.40040        2.30940        1.64260
H          1.66200        3.02770        3.12420
H          2.02820        4.76730        1.38510
H          0.28260        4.56100        1.76880
H          1.78620        3.35010       -0.60010
H          0.60760        4.66110       -0.68510
H         -0.61510        2.52540       -1.27590
H         -1.16310        3.21650        0.19330
H         -0.66210        0.07970       -1.82480
H          0.35860        2.21760       -2.99160
H         -0.25010        0.87850       -3.87400
H          2.57390        1.84470       -3.95910
H          1.52820        1.53800       -5.16720
H          3.49920       -0.20810       -4.65350
H          1.90570       -0.74630       -5.25710
H          2.86540       -1.02050       -2.35320
H          2.48530       -2.27130       -3.56840
H          0.27950       -2.01440       -2.24670
H          0.11660       -1.28610       -3.72930
H          2.03470       -2.57600       -1.10010
H          0.82350       -3.90970       -1.59360
H          2.16260       -4.17730       -0.47450
H          0.26620       -5.18770        0.49090
H         -0.72580       -6.40070        2.17830
H         -2.06580       -5.55250        3.04320
H         -0.39900       -5.59750        3.74530
H         -1.36770       -3.09890        3.69970
H         -1.40250       -1.03570        4.07790
H         -1.41530        0.12030        2.77590
H          0.10910       -0.42380        3.75610
H          4.32250       -2.11380        1.81740
H          1.80010       -1.16400        2.56840
H          2.78320       -2.55740        3.24690
H          5.43860        2.67140       -0.55430
H          5.83740        1.93790       -2.24220
H          7.05250        2.71690       -1.22560
H          8.48270        1.33290       -0.05630
H          8.19590        0.00780       -1.28620
H          7.76360        0.03070        1.73030
H          8.62780       -1.24380        0.74650
H          7.65360       -2.55580        2.49610
H          7.08310       -4.82690        3.18350
H          5.33440       -6.09770        1.98340
H          4.23060       -5.12130       -0.00040
H          4.79370       -2.82280       -0.75040
