72

P          1.09240       -0.03440       -0.01670
C          0.03190       -1.40700        0.56110
C         -0.96970       -1.28040        1.54190
C         -1.56960       -2.42020        2.09620
C         -1.16290       -3.69660        1.70070
C         -0.18880       -3.83860        0.71540
C          0.38650       -2.70440        0.13310
C          0.67960        1.21500        1.23900
C          1.09710        1.04100        2.57110
C          0.62370        1.90200        3.57520
C         -0.27230        2.92850        3.25560
C         -0.67080        3.11690        1.93490
C         -0.19390        2.27000        0.93570
C          0.28240        0.33740       -1.60260
C          0.96090        0.40790       -2.83890
O          2.29080        0.14660       -2.88600
C          3.04380        0.08160       -4.04050
C          0.22220        0.73070       -4.00620
C         -1.15150        0.96380       -3.94670
C         -1.82050        0.86580       -2.73610
C         -1.11470        0.55130       -1.58100
Ni         3.55240       -0.03440       -0.01670
Br         3.55240        2.37620       -0.96390
C          3.55240       -2.03540        0.76960
C          4.51680       -2.93480        0.96350
P          6.01240       -0.03440       -0.01670
C          7.33030        1.12940       -0.48600
C          6.54540       -0.48850        1.64680
C          7.38760       -1.58550        1.90140
C          7.82880       -1.85690        3.19920
C          7.43940       -1.03150        4.25510
C          6.61360        0.06940        4.01630
C          6.16890        0.34190        2.71760
C          6.29960       -1.34790       -1.23990
C          5.21990       -1.89430       -1.95040
C          5.42590       -2.91480       -2.88370
C          6.71700       -3.39150       -3.13320
C          7.80140       -2.83970       -2.44430
C          7.59670       -1.82610       -1.50410
H         -1.27470       -0.31700        1.91520
H         -2.32550       -2.31420        2.86380
H         -1.59280       -4.57500        2.16590
H          0.14700       -4.82690        0.42460
H          1.17550       -2.84720       -0.59650
H          1.75720        0.22470        2.83480
H          0.92780        1.76230        4.60400
H         -0.66680        3.57160        4.03280
H         -1.37750        3.90100        1.68670
H         -0.54380        2.44540       -0.06580
H          4.08880       -0.16180       -3.79890
H          3.03610        1.08150       -4.55320
H          2.63790       -0.68960       -4.72550
H          0.70220        0.80230       -4.97410
H         -1.70010        1.22040       -4.84520
H         -2.88770        1.04140       -2.68740
H         -1.66850        0.47490       -0.65540
H          2.59180       -2.36520        1.10310
H          5.53650       -2.79430        0.69340
H          4.25710       -3.89090        1.41130
H          7.21800        2.04570        0.13340
H          7.13630        1.43570       -1.53990
H          8.35280        0.73260       -0.38930
H          7.72020       -2.23190        1.10630
H          8.47430       -2.70440        3.38240
H          7.78660       -1.24120        5.25940
H          6.32320        0.71350        4.83470
H          5.54390        1.20850        2.54390
H          4.21360       -1.54360       -1.77810
H          4.58430       -3.33910       -3.41530
H          6.87550       -4.17840       -3.85140
H          8.80320       -3.20280       -2.63740
H          8.45660       -1.42480       -0.98780
