83

P          1.02370       -0.00980        0.09660
C          0.14970        0.69420       -1.49460
C         -1.39650        0.53690       -1.59830
C          0.56310        2.20980       -1.63800
C          0.68770        0.07480       -2.79490
C          0.61920       -1.77560       -0.14650
C          1.59060       -2.78470       -0.20590
C          1.21970       -4.13170       -0.34110
C         -0.12910       -4.49020       -0.37420
C         -1.10580       -3.50900       -0.24290
C         -0.73520       -2.17060       -0.11850
C          0.00830        0.73280        1.48040
C         -0.87740        1.83230        1.33220
C         -1.51440        2.42100        2.42050
C         -1.29840        1.93570        3.70040
C         -0.45710        0.84120        3.88870
C          0.18500        0.23650        2.79080
Ni         3.48370       -0.00980        0.09660
Br         3.48370       -1.25430       -2.17480
C          3.48370        1.02320        1.98220
C          2.54750        1.89280        2.34340
P          5.94370       -0.00980        0.09660
C          6.93310       -0.42210        1.66120
C          8.23850       -0.99600        1.69510
C          8.83900       -1.38360        2.92590
C          8.17220       -1.19360        4.13590
C          6.88980       -0.70740        4.12410
C          6.29400       -0.39970        2.91620
C          6.31750       -1.57860       -0.85100
C          7.05150       -1.68320       -2.06600
C          7.35940       -2.91400       -2.64770
C          6.95280       -4.08970       -2.04300
C          6.22800       -4.03680       -0.85530
C          5.91010       -2.79780       -0.26710
C          6.58090        1.75190       -0.08290
C          8.14310        1.83590       -0.04140
C          8.79430        1.03610       -1.18220
C          8.29830        1.53120       -2.55850
C          6.75060        1.65240       -2.65350
C          6.16540        2.39770       -1.44570
H         -1.98650        0.82350       -0.71880
H         -1.67130       -0.50270       -1.85350
H         -1.77030        1.14190       -2.44490
H          0.27470        2.92990       -0.86130
H          0.19490        2.63190       -2.58630
H          1.67910        2.29180       -1.64600
H          0.58930       -1.02980       -2.78850
H          1.73840        0.38770       -2.95760
H          0.16400        0.47130       -3.67330
H          2.63620       -2.55940       -0.12390
H          1.97880       -4.89980       -0.40080
H         -0.41630       -5.53190       -0.46680
H         -2.15410       -3.78340       -0.22120
H         -1.52150       -1.45260        0.03960
H         -1.10450        2.30500        0.41440
H         -2.16400        3.27510        2.26330
H         -1.78130        2.41920        4.54120
H         -0.28030        0.47530        4.89050
H          0.86170       -0.58520        2.97150
H          4.30710        1.27890        2.58850
H          1.75480        2.15440        1.69470
H          2.66080        2.51920        3.22530
H          8.78730       -1.20110        0.79430
H          9.81560       -1.84700        2.95580
H          8.60860       -1.47030        5.09390
H          6.31820       -0.59700        5.04170
H          5.30280       -0.20710        3.04720
H          7.44420       -0.86910       -2.61110
H          7.93200       -2.95270       -3.56920
H          7.21600       -5.03920       -2.49580
H          5.92750       -4.96210       -0.38560
H          5.36510       -2.79320        0.66790
H          6.17410        2.36700        0.73970
H          8.54480        1.49420        0.93620
H          8.46370        2.89330       -0.15450
H          8.58180       -0.02320       -1.02350
H          9.90380        1.10470       -1.14300
H          8.69570        0.87380       -3.36920
H          8.73240        2.53710       -2.71880
H          6.20620        0.70020       -2.70140
H          6.49680        2.15830       -3.60890
H          5.06180        2.44120       -1.54190
H          6.55340        3.43850       -1.48490
