75

P          0.96960        0.09370        0.01730
C          0.62800       -0.99090       -1.44130
C          0.22900       -0.49840       -2.71410
C         -0.01200       -1.36700       -3.78150
C          0.14100       -2.74170       -3.62120
C          0.54630       -3.24800       -2.38930
C          0.79700       -2.38590       -1.31620
C          0.63430       -0.53370        1.72350
C         -0.03420       -1.77130        1.89460
C         -0.36810       -2.25380        3.16760
C         -0.06590       -1.50820        4.29510
C          0.61290       -0.29570        4.16270
C          0.98970        0.17280        2.88920
C         -0.32770        1.44370       -0.33440
C         -1.79670        1.00040       -0.34790
C         -2.35640        0.90540        1.07680
C         -2.25920        2.26560        1.79610
C         -0.82770        2.80820        1.81110
C         -0.22550        2.80880        0.40920
Ni         3.42960        0.09370        0.01730
Br         3.54610       -0.88790       -2.26050
C          3.22420        2.03260       -0.72330
C          3.30390        3.12660        0.04130
P          5.88960        0.09370        0.01730
N          6.98310        1.04000       -1.07700
C          6.64350        2.46590       -1.22060
C          8.38990        0.77060       -1.39950
N          6.40830        0.78820        1.60150
C          7.86540        0.98030        1.73990
C          5.70670        1.99460        2.03780
N          6.34270       -1.57670       -0.51560
C          6.55830       -1.83180       -1.94910
C          7.45500       -2.12970        0.29380
H          0.10570        0.54150       -2.93820
H         -0.31330       -0.97270       -4.74550
H         -0.04520       -3.41090       -4.45180
H          0.67210       -4.31410       -2.26790
H          1.13680       -2.82510       -0.39370
H         -0.33720       -2.37150        1.06020
H         -0.88150       -3.20330        3.26570
H         -0.35880       -1.87130        5.27710
H          0.83850        0.27970        5.05220
H          1.52610        1.10870        2.82690
H         -0.06320        1.77120       -1.35000
H         -1.92150        0.05780       -0.91730
H         -2.38600        1.78340       -0.88070
H         -1.81280        0.13610        1.64210
H         -3.42080        0.59930        1.03160
H         -2.61860        2.16820        2.84280
H         -2.90800        2.99820        1.27040
H         -0.22550        2.20980        2.47620
H         -0.81100        3.83890        2.22950
H          0.80460        3.20030        0.42080
H         -0.82260        3.55150       -0.17280
H          2.99770        2.15870       -1.77560
H          3.48280        3.07920        1.10090
H          3.17190        4.11210       -0.39350
H          5.55950        2.62330       -1.23880
H          6.99590        2.86010       -2.19620
H          7.10780        3.08440       -0.42890
H          8.61730       -0.29200       -1.50670
H          9.08720        1.28180       -0.71340
H          8.59140        1.18740       -2.41380
H          8.43350        0.08450        1.44060
H          8.12810        1.16720        2.80240
H          8.21990        1.86690        1.17890
H          4.65820        1.73680        2.25930
H          5.80410        2.82580        1.31570
H          6.13460        2.36510        2.99810
H          5.77320       -2.52130       -2.32080
H          7.51880       -2.34820       -2.17160
H          6.52990       -0.90540       -2.56940
H          7.27390       -2.02180        1.37930
H          8.43810       -1.66310        0.06860
H          7.59480       -3.21320        0.07110
