90

P          0.95830       -0.06070        0.06760
C          0.32190        0.69250       -1.46720
C         -1.02250        0.70290       -1.87440
C         -1.37230        1.27100       -3.11460
C         -0.39250        1.82860       -3.94650
C          0.94010        1.83130       -3.54230
C          1.29250        1.27080       -2.31330
C          0.59230       -1.77600       -0.46680
C          0.47520       -2.19980       -1.80950
C          0.28470       -3.54960       -2.11500
C          0.17720       -4.49540       -1.09560
C          0.24180       -4.09080        0.23420
C          0.44440       -2.74720        0.54290
C          0.27650        0.89210        1.48980
C          0.48380        0.50990        2.86260
C          1.30420       -0.66520        3.33090
C         -0.07680        1.28410        3.89410
C         -0.81570        2.42510        3.61160
C         -1.01650        2.81060        2.29110
C         -0.48430        2.05390        1.24240
Ni         3.41830       -0.06070        0.06760
Br         3.38110       -1.54880       -1.91570
C          3.48910        1.12600        1.72750
C          2.78080        2.23550        1.97960
P          5.87830       -0.06070        0.06760
C          6.79350       -0.32550        1.78610
C          6.32900       -1.72310        2.29480
C          8.32690       -0.28640        1.73850
C          6.46250        0.60480        3.00020
C          6.59390       -1.29620       -1.27530
C          6.18930       -0.89350       -2.74540
C          8.14550       -1.35210       -1.39350
C          6.18740       -2.76840       -0.96480
C          6.28140        1.74480       -0.16290
C          5.91810        2.84630        0.62820
C          6.21520        4.16740        0.22510
C          6.86630        4.45810       -1.00800
N          7.06340        5.81730       -1.50420
C          6.64980        7.00310       -0.76460
C          7.60280        6.12890       -2.83140
C          7.27390        3.34260       -1.75550
C          6.99480        2.05110       -1.33260
H         -1.78760        0.26480       -1.25140
H         -2.40250        1.27490       -3.44330
H         -0.66080        2.25750       -4.90580
H          1.70280        2.26060       -4.18400
H          2.33800        1.27910       -2.02900
H          0.57850       -1.51330       -2.63490
H          0.23690       -3.86150       -3.14840
H          0.04170       -5.54080       -1.33440
H          0.14630       -4.81820        1.03130
H          0.48300       -2.48940        1.58300
H          1.83770       -1.18460        2.51980
H          0.65380       -1.37720        3.88740
H          2.09010       -0.30980        4.03230
H          0.07470        1.00900        4.93310
H         -1.22680        3.01380        4.42280
H         -1.58840        3.70430        2.08090
H         -0.66550        2.39980        0.23820
H          4.10590        0.82030        2.46170
H          2.17950        2.70810        1.23500
H          2.90420        2.70640        2.95880
H          6.72430       -2.55620        1.71350
H          5.21420       -1.79230        2.27880
H          6.65420       -1.93800        3.33480
H          8.76570       -1.11530        1.20300
H          8.75180       -0.45800        2.75460
H          8.68540        0.69210        1.36840
H          5.54980        0.37320        3.56080
H          6.65060        1.67100        2.82820
H          7.10320        0.35390        3.86830
H          6.88500       -0.20030       -3.24350
H          5.26530       -0.32510       -2.87610
H          6.23140       -1.77570       -3.42290
H          8.61290       -0.35630       -1.50940
H          8.44190       -1.95750       -2.28010
H          8.64050       -1.90030       -0.59090
H          5.15440       -2.90560       -0.61060
H          6.82930       -3.21530       -0.18960
H          6.37570       -3.43210       -1.83470
H          5.38040        2.73850        1.54310
H          5.87860        4.93200        0.89630
H          6.22910        6.81420        0.22920
H          5.87230        7.54500       -1.34590
H          7.52070        7.67660       -0.62120
H          7.90760        5.27360       -3.44760
H          8.49210        6.78780       -2.73760
H          6.83220        6.66750       -3.42630
H          7.79280        3.40750       -2.69600
H          7.33580        1.29920       -1.98410
