58

P          0.90720        0.01720        0.03310
C         -0.09210        0.42030       -1.53950
C         -1.61090        0.27310       -1.38790
C          0.24230        1.83380       -2.05410
C          0.34140       -0.53340       -2.69020
C          0.44030       -1.73330        0.35610
C          0.78310       -2.79310       -0.51860
C          0.40740       -4.11470       -0.23610
C         -0.30040       -4.40680        0.92750
C         -0.61600       -3.38680        1.81940
C         -0.24620       -2.06630        1.54270
C          0.22040        1.37610        1.09300
C         -1.05800        1.16380        1.66350
C         -1.62490        2.07400        2.56060
C         -0.94380        3.23790        2.89720
C          0.31120        3.47970        2.34940
C          0.89370        2.55120        1.47950
Ni         3.36720        0.01720        0.03310
Br         3.36720        2.48510       -0.75260
C          3.36720       -2.03150        0.68530
C          4.33120       -2.91560        0.41610
C          5.51720        0.01720        0.03310
N          6.29850       -0.65170        0.92990
C          5.93960       -1.29320        2.19580
C          7.57770       -0.44650        0.57010
C          7.59560        0.35920       -0.53840
N          6.31630        0.67180       -0.85260
C          5.97990        1.38790       -2.08750
H         -2.02990        1.01470       -0.69100
H         -1.86770       -0.75640       -1.05900
H         -2.10710        0.44770       -2.36950
H         -0.02720        2.61640       -1.32310
H         -0.29900        2.04250       -3.00370
H          1.31590        1.91490       -2.30710
H         -0.04240       -1.55900       -2.55710
H          1.44950       -0.54790       -2.80830
H         -0.09030       -0.22530       -3.66720
H          1.36690       -2.61670       -1.40780
H          0.67610       -4.90650       -0.91970
H         -0.58450       -5.42940        1.14630
H         -1.14480       -3.61860        2.73670
H         -0.48620       -1.32340        2.28180
H         -1.62820        0.27850        1.44090
H         -2.59190        1.86930        3.00160
H         -1.37950        3.94520        3.59120
H          0.84790        4.38170        2.61370
H          1.86180        2.79280        1.15840
H          2.54390       -2.42740        1.24860
H          5.19850       -2.65620       -0.17490
H          4.24190       -3.93450        0.78250
H          4.86780       -1.16190        2.43400
H          6.47290       -0.77290        3.02180
H          6.24440       -2.35890        2.20700
H          8.44270       -0.82890        1.09520
H          8.47200        0.67510       -1.08110
H          6.87940        1.49000       -2.73350
H          5.65220        2.41690       -1.89680
H          5.23920        0.79350       -2.66870
