60

P          1.06360        0.06700        0.03830
C          0.36940       -1.07410       -1.17150
C         -0.85010       -1.76160       -1.10220
C         -1.18800       -2.66570       -2.12860
C         -0.32440       -2.86610       -3.21670
C          0.87930       -2.17480       -3.28780
C          1.22290       -1.29160       -2.26970
C          0.51760       -0.90860        1.51080
C          0.72560       -2.27720        1.78280
C          0.27620       -2.85360        2.98100
C         -0.42690       -2.09150        3.91340
C         -0.69950       -0.75820        3.64120
C         -0.23590       -0.17820        2.45870
C          0.27490        1.70780       -0.10660
C          0.53700        2.71910        0.84710
O          1.46120        2.50960        1.83060
C          1.90380        3.43700        2.75430
C         -0.17070        3.94680        0.78110
C         -1.11390        4.16130       -0.22750
C         -1.36560        3.16830       -1.17320
C         -0.68320        1.94810       -1.11580
Ni         3.52360        0.06700        0.03830
Br         3.52360       -2.50690        0.32610
C          3.52360        2.20370       -0.20070
C          4.53170        3.07160       -0.04660
N          5.62360        0.06700        0.03830
C          6.29250       -0.73110        0.91780
C          7.68720       -0.63530        1.03920
C          8.40800        0.17590        0.14260
O          9.75630        0.32370        0.18640
C         10.57340       -0.02820        1.23880
C          7.70840        0.88030       -0.83200
C          6.31640        0.85600       -0.83170
H         -1.51680       -1.62990       -0.26400
H         -2.11240       -3.22280       -2.08380
H         -0.58270       -3.56120       -4.00790
H          1.55130       -2.32220       -4.12600
H          2.17230       -0.77090       -2.34370
H          1.20270       -2.93280        1.09520
H          0.46760       -3.89780        3.18870
H         -0.77750       -2.53500        4.83680
H         -1.26860       -0.16290        4.34650
H         -0.47980        0.85710        2.30990
H          2.73900        3.00690        3.34370
H          1.08650        3.72980        3.43900
H          2.29490        4.33790        2.22680
H         -0.00540        4.73000        1.49420
H         -1.65730        5.09850       -0.26350
H         -2.10530        3.34220       -1.94330
H         -0.91300        1.18990       -1.85030
H          2.59810        2.66000       -0.49030
H          5.52340        2.80410        0.27090
H          4.36010        4.12690       -0.23080
H          5.74200       -1.32250        1.63570
H          8.18620       -1.17770        1.83120
H         11.62310        0.22010        0.97770
H         10.50490       -1.11460        1.44850
H         10.29130        0.55790        2.14060
H          8.23750        1.47240       -1.56850
H          5.78660        1.40930       -1.59540
