73

P          0.98100        0.06750       -0.07130
C          0.13250       -1.42540       -1.12480
C          0.68390       -1.73520       -2.55750
C          1.92390       -2.71320       -2.60080
C          1.78530       -3.99740       -1.80820
C          1.34040       -3.62540       -0.40280
C          0.00590       -2.88050       -0.54180
C          0.22020        0.10450        1.69670
C         -1.33210        0.22740        1.72570
C         -2.06100       -1.10880        1.51460
C         -1.58570       -2.19130        2.52100
C         -0.04550       -2.30000        2.67240
C          0.57400       -0.92870        2.82960
C          0.39310        1.41810       -1.20780
C          1.10250        2.63860       -1.42580
C          2.42150        2.96870       -0.78630
C          0.53010        3.67920       -2.20000
C         -0.76300        3.55490       -2.71680
C         -1.49870        2.41550       -2.45110
C         -0.94340        1.38680       -1.70110
Ni         3.44100        0.06750       -0.07130
Br         3.44100       -0.13600       -2.65330
C          3.44100        0.23650        2.07210
C          3.30150        1.36730        2.76050
C          5.59100        0.06750       -0.07130
N          6.39080        0.42630       -1.03680
C          6.04090        1.16050       -2.23080
C          7.77130        0.30120       -0.66340
C          7.71220        0.12140        0.84300
N          6.33870       -0.25400        1.09710
C          6.05750       -1.48020        1.82260
H         -0.90890       -1.18380       -1.28250
H          0.82220       -0.80000       -3.13380
H         -0.11470       -2.28820       -3.10800
H          2.78400       -2.33400       -2.06750
H          2.19850       -2.94010       -3.65550
H          2.77100       -4.52420       -1.77780
H          1.05290       -4.67870       -2.28390
H          2.08890       -2.98870        0.12740
H          1.22100       -4.56870        0.16940
H         -0.60980       -2.96870        0.32460
H         -0.63350       -3.50250       -1.21250
H          0.60480        1.07420        2.07640
H         -1.68690        0.99400        1.00940
H         -1.62950        0.57560        2.74080
H         -1.95730       -1.42460        0.48360
H         -3.15880       -0.97620        1.63280
H         -2.02060       -3.18340        2.25310
H         -1.98300       -1.91030        3.51340
H          0.53960       -2.77030        1.88790
H          0.17790       -2.95520        3.54130
H          1.63410       -1.07600        3.00360
H          0.17330       -0.53130        3.78740
H          2.75650        2.20180       -0.07140
H          2.30280        3.91230       -0.20530
H          3.19270        3.13120       -1.56200
H          1.06200        4.61690       -2.36390
H         -1.20420        4.36170       -3.28370
H         -2.52300        2.34150       -2.79740
H         -1.64190        0.60720       -1.49670
H          3.66010       -0.66490        2.62140
H          3.14980        2.32040        2.27450
H          3.37520        1.32740        3.84550
H          5.09800        1.72120       -2.08660
H          6.11660        0.53340       -3.14110
H          6.75460        2.00470       -2.35130
H          8.39880        1.18290       -0.92320
H          8.16670       -0.61500       -1.15570
H          7.86690        1.09850        1.34660
H          8.48410       -0.59730        1.19460
H          6.97640       -2.09560        1.94030
H          5.31530       -2.10780        1.28100
H          5.70950       -1.25130        2.84550
