58

P          1.27500       -0.00000       -0.00000
O          0.32420       -0.70110       -1.26320
C         -1.05960       -0.64500       -1.06550
C         -1.39900        0.10610        0.19980
C         -2.93180        0.19740        0.34130
C         -0.73270       -0.67900        1.38530
O          0.65190       -1.01310        1.20890
O          0.66020        1.56400       -0.23750
C         -0.74320        1.54050        0.05940
Ni         3.73500        0.00030       -0.00050
Br         3.73530        1.15930        2.31570
C          3.73480       -0.96180       -1.92320
C          3.33460       -2.22020       -2.14330
C          5.88500        0.00060       -0.00090
N          6.68100        1.10840        0.18600
C          6.42100        2.57430        0.09140
C          6.76300        3.23600        1.42640
C          7.33690        3.16550       -1.03860
C          4.99410        2.91860       -0.38240
C          7.95180        0.65450        0.20280
C          7.96270       -0.67670       -0.04220
N          6.69670       -1.10590       -0.21350
C          6.38350       -2.54660       -0.39070
C          7.49410       -3.50070        0.15370
C          5.13660       -2.89580        0.44720
C          6.33250       -2.84130       -1.90770
H         -1.45360       -1.68520       -1.02170
H         -1.50900       -0.14620       -1.95280
H         -3.36780       -0.82590        0.38130
H         -3.37080        0.71190       -0.53990
H         -3.21720        0.74940        1.26050
H         -1.27730       -1.64380        1.49230
H         -0.86240       -0.11290        2.32970
H         -1.25690        2.06700       -0.77420
H         -0.93140        2.12210        0.98780
H          4.04440       -0.35820       -2.77030
H          3.00770       -2.87190       -1.34460
H          3.36250       -2.62030       -3.15230
H          7.80090        2.97660        1.73020
H          6.07340        2.87720        2.21410
H          6.68930        4.33950        1.34860
H          8.42130        3.02300       -0.86280
H          7.18870        4.25920       -1.15390
H          7.10470        2.68630       -2.01760
H          4.20420        2.61070        0.29590
H          4.78490        2.45870       -1.37350
H          4.89260        4.02060       -0.49290
H          8.85140        1.25100        0.30630
H          8.86540       -1.26210       -0.10020
H          7.67810       -3.33970        1.23700
H          8.46190       -3.38780       -0.38000
H          7.19540       -4.56300        0.00950
H          5.37670       -2.78230        1.52850
H          4.82010       -3.94660        0.27910
H          4.28940       -2.21980        0.28650
H          7.35700       -2.77930       -2.33770
H          5.80240       -2.08250       -2.48800
H          5.93140       -3.85590       -2.11320
