91

P          1.00510       -0.07160        0.06960
C         -0.06330       -1.48650       -0.50240
C         -1.26740       -1.90480        0.09590
C         -2.03390       -2.93920       -0.46090
C         -1.61250       -3.58620       -1.62830
C         -0.42960       -3.19710       -2.23830
C          0.32780       -2.16770       -1.68470
C          0.46850       -0.18600        1.80470
C          0.85640       -1.27460        2.60090
C          0.31260       -1.44290        3.88340
C         -0.61580       -0.52450        4.38400
C         -1.00890        0.55900        3.60290
C         -0.48250        0.72070        2.32040
C          0.08180        1.20140       -1.00190
C         -0.11840        2.59090       -0.70260
C          0.46790        3.30610        0.46000
C         -0.95790        3.38790       -1.51620
C         -1.61360        2.86590       -2.62110
C         -1.40770        1.55100       -2.96730
C         -0.58100        0.75340       -2.19190
Ni         3.46510       -0.07160        0.06960
Br         3.46510        2.33490        1.02730
C          3.46510       -2.06920       -0.72530
C          3.81320       -3.01010        0.14680
C          5.61510       -0.07160        0.06960
N          6.30270        1.10610       -0.13340
C          5.91840        2.33030       -0.87150
C          6.74260        3.52610       -0.86610
C          7.96220        3.75370        0.01170
C          6.48580        4.55880       -1.78090
C          5.46200        4.48330       -2.70930
C          5.22730        5.52400       -3.75500
C          4.65060        3.36840       -2.72290
C          4.85350        2.29480       -1.85130
C          3.91010        1.15030       -2.14400
C          7.61090        0.79580        0.04080
C          7.76810       -0.50920        0.27930
N          6.57980       -1.12230        0.22820
C          6.73310       -2.59630        0.26340
C          7.49400       -3.34670        1.26740
C          8.16380       -2.80220        2.51220
C          7.72500       -4.73930        1.08610
C          7.27950       -5.40890       -0.04890
C          7.55400       -6.87300       -0.29270
C          6.62860       -4.68470       -1.03740
C          6.39560       -3.31290       -0.91020
C          5.93180       -2.59050       -2.13760
H         -1.65310       -1.41810        0.98620
H         -2.96630       -3.23940       -0.00490
H         -2.20980       -4.37400       -2.07130
H         -0.10800       -3.67340       -3.15970
H          1.18790       -1.84840       -2.23750
H          1.54330       -2.01520        2.21470
H          0.59150       -2.29720        4.48480
H         -1.04770       -0.66160        5.36770
H         -1.74520        1.26070        3.97800
H         -0.86740        1.53250        1.73330
H          0.97070        2.61330        1.13110
H         -0.32970        3.79460        1.05430
H          1.17010        4.08260        0.08300
H         -1.13600        4.42750       -1.27220
H         -2.28230        3.47480       -3.21560
H         -1.90620        1.12950       -3.83400
H         -0.53290       -0.22640       -2.58730
H          3.01150       -2.41570       -1.62940
H          4.17620       -2.71780        1.12690
H          3.73800       -4.06260       -0.10470
H          7.86360        3.28380        1.01190
H          8.14010        4.83810        0.18530
H          8.87910        3.42750       -0.53170
H          7.13100        5.43780       -1.79810
H          5.97440        6.33920       -3.69900
H          4.20420        5.93590       -3.65140
H          5.31620        5.03530       -4.75170
H          3.86530        3.33660       -3.46650
H          3.35440        1.27330       -3.09690
H          3.07370        1.18150       -1.44210
H          4.43550        0.19560       -2.25930
H          8.48450        1.39650       -0.12620
H          8.73130       -1.00100        0.37330
H          8.02100       -1.71950        2.67700
H          9.26570       -2.99430        2.44440
H          7.82080       -3.35240        3.41970
H          8.29470       -5.30660        1.82540
H          8.16470       -7.33980        0.50760
H          8.11200       -6.97960       -1.25030
H          6.59980       -7.43610       -0.38690
H          6.34260       -5.19370       -1.94820
H          5.20290       -3.19360       -2.71470
H          6.82270       -2.27450       -2.70910
H          5.49050       -1.62610       -1.91140
