63

P         -1.10970       -0.04440        0.90590
N         -1.03890       -1.23720       -0.43280
C         -2.21140       -1.08960       -1.32210
C          0.14060       -1.51160       -1.26060
C          1.42520       -1.39310       -0.52020
N          1.97900       -0.02720       -0.24740
C          1.42640        1.35050       -0.39670
C          0.12420        1.50590       -1.14290
N         -1.08550        1.36200       -0.26510
C         -1.41240        2.66050        0.34640
N          0.25210       -0.71970        1.96780
C         -0.15720       -1.50380        3.14140
C          1.61360       -0.07010        2.17800
C          2.65710       -0.10760        1.02000
Ni        -3.25710       -0.02990        2.32820
Br        -2.46350        2.00020        3.52240
C         -4.07350       -1.66670        1.27800
C         -3.52640       -2.85590        1.03880
N         -5.01350        0.08590        3.48490
C         -5.81520       -0.78990        4.05630
C         -5.52460       -2.20250        4.51410
C         -4.21370       -2.67710        4.72270
C         -3.99540       -3.90390        5.38560
C         -5.07140       -4.66920        5.84700
C         -6.37160       -4.22610        5.63600
C         -6.59700       -3.01160        4.98240
N         -6.97260       -0.17670        4.60980
C         -6.84290        1.23270        4.52730
C         -5.67790        1.38860        3.56250
H         -3.13480       -0.86830       -0.77770
H         -2.37900       -2.02570       -1.89640
H         -2.10350       -0.23150       -2.01640
H          0.16530       -1.02880       -2.25120
H          0.04580       -2.58750       -1.52330
H          2.20660       -1.97160       -1.04840
H          1.28110       -2.01670        0.38980
H          2.22180        1.95210       -0.89140
H          1.28560        1.88900        0.56780
H          0.09450        0.96250       -2.08970
H          0.16290        2.53140       -1.57920
H         -0.89590        3.53140       -0.12460
H         -1.09820        2.70570        1.39670
H         -2.48220        2.87020        0.15980
H         -1.13790       -1.19400        3.54350
H          0.55180       -1.38300        3.99640
H         -0.10620       -2.57790        2.87650
H          1.49320        0.95970        2.55780
H          2.20670       -0.62440        2.94060
H          3.29390       -1.02770        1.01470
H          3.40550        0.71370        1.13300
H         -4.99400       -1.44150        0.73170
H         -2.57940       -3.14190        1.46050
H         -4.03510       -3.53260        0.34550
H         -3.35870       -2.07890        4.44630
H         -2.98990       -4.25500        5.57880
H         -4.90310       -5.59860        6.38250
H         -7.20910       -4.81020        6.00530
H         -7.62790       -2.70510        4.88220
H         -7.65180       -0.61090        5.25290
H         -6.55180        1.59390        5.53650
H         -7.78310        1.73770        4.20510
H         -5.08140        2.28080        3.78760
H         -6.13550        1.52420        2.54890
