36

C          0.90100       -0.64300       -0.00200
N         -0.33150       -1.04250       -0.40290
C         -0.70830       -2.28630       -1.06990
C         -1.15150        0.01370       -0.24810
C         -0.41140        1.06340        0.24030
N          0.87140        0.66400        0.35710
C          1.94130        1.46860        0.93950
Ni         2.65840       -1.88140       -0.01350
Br         3.91090       -0.09120       -1.40440
C          1.61880       -3.36750        1.14110
C          0.38280       -3.26050        1.64400
N          4.37500       -3.09110       -0.02470
C          5.60060       -2.54080       -0.32670
N          6.71900       -3.30390       -0.42420
C          6.68810       -4.63990       -0.23640
O          7.79720       -5.40280       -0.39150
C          9.01860       -4.90450       -0.79530
C          5.48640       -5.24360        0.08330
C          4.34600       -4.45050        0.18590
H          0.17080       -2.95040       -1.19910
H         -1.07610       -2.03680       -2.09230
H         -1.52190       -2.80140       -0.52380
H         -2.20400        0.02960       -0.50020
H         -0.78370        2.04930        0.48870
H          1.53860        2.43880        1.30460
H          2.73200        1.68750        0.20780
H          2.36510        0.93440        1.81870
H          2.06310       -4.28030        1.46570
H         -0.24860       -2.40250        1.52800
H         -0.02770       -4.07100        2.23980
H          5.73990       -1.49670       -0.46830
H          9.74580       -5.74020       -0.86500
H          9.39010       -4.16130       -0.06050
H          8.92740       -4.43230       -1.79740
H          5.42290       -6.31730        0.20930
H          3.45680       -5.01120        0.33840
