57

C          0.90100       -0.64300       -0.00200
N         -0.23390       -0.91790        0.69230
C         -0.51730       -2.10570        1.51200
C         -0.93430       -1.71260        2.93740
C         -1.63180       -2.93420        0.86140
C         -1.08450        0.09430        0.41680
C         -0.45590        0.97990       -0.43350
N          0.78140        0.51080       -0.69700
C          1.81260        1.16110       -1.51870
C          1.31950        1.34520       -2.95740
C          2.20280        2.51210       -0.91050
Ni         2.65840       -1.88140       -0.01350
Br         2.51340       -2.06340       -2.59300
C          2.77890       -1.73040        2.12780
C          2.26250       -0.72200        2.82600
C          4.41590       -3.11990       -0.02500
N          5.59380       -2.65620        0.14380
C          5.89690       -1.23710        0.17680
C          6.60400       -0.83280        1.46020
C          6.57800       -3.71660        0.11200
C          5.73030       -5.00220        0.12590
N          4.40070       -4.51670       -0.14980
C          3.21400       -5.33030       -0.31410
C          2.92220       -6.14760        0.94280
H          0.38680       -2.74920        1.56090
H         -1.86230       -1.10430        2.92480
H         -0.15350       -1.12140        3.44330
H         -1.11530       -2.62500        3.54420
H         -2.57640       -2.35130        0.79870
H         -1.82320       -3.85310        1.45660
H         -1.33210       -3.23890       -0.16400
H         -2.08990        0.18610        0.80620
H         -0.87270        1.90290       -0.81850
H          2.72600        0.53110       -1.52630
H          0.42330        2.00070       -2.98470
H          1.05320        0.36460       -3.40000
H          2.11730        1.80710       -3.57600
H          1.33480        3.20540       -0.88040
H          3.00890        2.98630       -1.50860
H          2.58030        2.36960        0.12520
H          3.36010       -2.48110        2.65360
H          1.72980        0.08670        2.34420
H          2.39880       -0.68530        3.90200
H          4.96730       -0.63280        0.07310
H          6.55220       -0.99570       -0.68990
H          5.94670       -1.02920        2.33140
H          6.83540        0.25320        1.41700
H          7.55760       -1.38820        1.57310
H          7.28530       -3.69290        0.96730
H          7.13190       -3.62600       -0.84860
H          5.72000       -5.44140        1.14870
H          6.09580       -5.74370       -0.61410
H          3.35870       -6.01020       -1.18060
H          2.33460       -4.68190       -0.51820
H          3.76810       -6.82430        1.18490
H          2.01560       -6.76800        0.78020
H          2.73850       -5.46820        1.80270
