55

P          1.07450        0.05580       -0.03660
C          0.21550        1.73590       -0.30490
C         -1.29990        1.92480       -0.46810
C          0.65500        2.77820        0.74840
C          0.69940       -0.98490       -1.54640
C         -0.80290       -1.23170       -1.81690
C          1.33770       -0.45540       -2.82330
C          0.59170       -0.54040        1.68100
C          1.02620        0.34900        2.85030
C         -0.91450       -0.83090        1.83130
Ni         3.53450        0.05580       -0.03660
Br         3.53450       -2.49460        0.41430
C          3.53450        2.17300       -0.41080
C          3.18630        2.66090       -1.59910
N          5.63450        0.05580       -0.03660
C          6.29090       -0.74060       -0.93080
C          5.54460       -1.53310       -1.96550
C          7.69410       -0.70260       -1.02170
C          8.41940        0.13940       -0.18290
C          7.74510        0.91060        0.75050
C          6.34340        0.87500        0.82230
C          5.68540        1.53030        2.00170
H          0.65780        2.06870       -1.26430
H         -1.86480        1.70610        0.44930
H         -1.73810        1.41140       -1.32240
H         -1.48830        3.00170       -0.68470
H          0.00280        2.77400        1.63400
H          0.56710        3.80510        0.33400
H          1.68610        2.64830        1.10840
H          1.13290       -1.98410       -1.33690
H         -1.31460       -0.34470       -2.20450
H         -1.34820       -1.62080       -0.94630
H         -0.92800       -1.99060       -2.61650
H          0.94580        0.55090       -3.07710
H          1.10160       -1.14160       -3.66690
H          2.43840       -0.41990       -2.71170
H          1.11330       -1.50900        1.81300
H          0.40350        1.25160        2.94480
H          2.09620        0.61150        2.78540
H          0.84790       -0.19630        3.80360
H         -1.52850        0.07740        1.72030
H         -1.13990       -1.22950        2.84190
H         -1.26380       -1.60350        1.13000
H          3.75790        2.91450        0.33200
H          2.90470        2.00520       -2.41090
H          3.16390        3.73730       -1.75130
H          4.45470       -1.38170       -1.87630
H          5.79860       -2.60970       -1.89890
H          5.82770       -1.15490       -2.97210
H          8.21520       -1.29400       -1.76580
H          9.49080        0.18190       -0.24100
H          8.31930        1.51550        1.44440
H          6.43210        1.99000        2.68890
H          5.16460        0.74200        2.58590
H          4.96610        2.31260        1.79420
