51

P         -1.35000        0.00100        0.79800
N         -1.11050       -1.10920       -0.62230
C         -2.26720       -1.06000       -1.53470
C          0.11010       -1.36540       -1.43490
C          1.41490       -1.22860       -0.72020
N          1.62950        0.11640       -0.16290
C          1.27840        1.41790       -0.77540
C         -0.21310        1.64890       -1.18940
N         -1.28460        1.53710       -0.15310
C         -1.30800        2.75220        0.67300
N         -0.00080       -0.64620        1.81620
C         -0.33160       -1.54980        2.90220
C          1.08500        0.30960        2.15800
C          2.21830        0.12830        1.17830
Ni        -3.32260        0.00260        2.26790
Br        -2.27550        1.91130        3.67100
C         -4.19180       -1.58190        1.10310
C         -3.63250       -2.78530        1.00910
C         -5.04660        0.00400        3.55250
N         -5.11570        0.64760        4.73930
H         -4.38920        1.22410        5.20500
C         -6.34450        0.40050        5.21800
Cl        -6.95810        1.01440        6.74540
C         -7.01510       -0.39840        4.32160
Cl        -8.64560       -1.01730        4.48120
N         -6.20130       -0.64520        3.28530
H         -3.22090       -0.91330       -1.01440
H         -2.34340       -2.00450       -2.11240
H         -2.19540       -0.22040       -2.25340
H          0.15240       -0.79250       -2.37810
H          0.04980       -2.41860       -1.79310
H          2.24980       -1.49720       -1.40300
H          1.39470       -2.00040        0.08490
H          1.91640        1.56080       -1.67510
H          1.55150        2.23480       -0.07540
H         -0.49250        1.07890       -2.07030
H         -0.24010        2.66700       -1.63070
H         -1.29820        3.66450        0.03940
H         -0.43010        2.84180        1.33450
H         -2.25450        2.81630        1.22660
H         -0.88960       -1.02590        3.70670
H          0.61970       -1.94390        3.35070
H         -0.85900       -2.43420        2.52770
H          0.73730        1.34590        2.12570
H          1.51250        0.16130        3.17510
H          2.74580       -0.83470        1.37340
H          3.00460        0.91440        1.26130
H         -5.10960       -1.38130        0.56030
H         -2.71320       -3.00770        1.52510
H         -4.09600       -3.55300        0.39820
H         -6.43560       -1.22650        2.45090
