67

C          0.90100       -0.64300       -0.00200
N         -0.45810       -0.93930        0.03980
C         -1.15080       -2.24420       -0.15400
C         -0.73270       -3.22020        0.93510
C         -1.48880       -2.93430        2.24560
C         -2.97650       -3.24810        2.04530
C         -3.56550       -2.27400        1.02230
C         -2.73980       -2.28060       -0.29120
C         -1.07260        0.24820        0.23110
C         -0.12620        1.24710        0.28140
N          1.09720        0.71140        0.08880
C          2.41110        1.42700        0.01280
C          3.08180        1.18180       -1.34210
C          2.23600        1.75300       -2.49960
C          2.26160        3.27710       -2.37620
C          1.69270        3.70710       -1.01520
C          2.37620        2.97300        0.16850
Ni         2.65840       -1.88140       -0.01350
Br         2.71570       -1.87940       -2.56000
C          2.54890       -1.85040        2.12430
C          3.45220       -2.30440        3.02490
N          4.37500       -3.09110       -0.02470
C          4.51320       -4.09470        0.87690
C          5.69380       -4.82030        0.98340
C          6.79620       -4.53660        0.14570
N          8.07720       -5.20890        0.31240
C          8.34430       -6.17270        1.37840
C          9.23810       -4.93960       -0.52980
C          6.58240       -3.54410       -0.84600
C          5.36920       -2.85290       -0.92130
H         -0.78470       -2.59380       -1.14260
H          0.36040       -3.14860        1.07380
H         -0.97050       -4.25500        0.60640
H         -1.36330       -1.87300        2.56380
H         -1.08770       -3.59200        3.03930
H         -3.53310       -3.16550        3.00520
H         -3.08070       -4.30140        1.69450
H         -3.59900       -1.26150        1.46910
H         -4.62360       -2.57880        0.81600
H         -3.14820       -1.52260       -0.99760
H         -2.97820       -3.26960       -0.74290
H         -2.13910        0.39800        0.33100
H         -0.33900        2.29160        0.44580
H          3.06720        1.01500        0.81140
H          3.24990        0.13770       -1.39200
H          4.10480        1.61180       -1.39340
H          1.18830        1.37350       -2.46350
H          2.66250        1.45930       -3.48310
H          1.67720        3.74700       -3.19780
H          3.31690        3.61570       -2.47460
H          0.61110        3.50090       -1.02870
H          1.82430        4.80420       -0.89770
H          1.92540        3.26250        1.13740
H          3.43830        3.31650        0.18690
H          1.68270       -1.35860        2.54980
H          4.41670       -2.74430        2.80930
H          3.27730       -2.20830        4.09200
H          3.69150       -4.34690        1.53160
H          5.69280       -5.56790        1.75320
H          7.51100       -6.37770        2.06120
H          9.17410       -5.80090        2.01770
H          8.64240       -7.14510        0.93470
H          9.08060       -4.21660       -1.33890
H          9.57580       -5.88210       -1.00770
H         10.06490       -4.53880        0.09630
H          7.32560       -3.23490       -1.55630
H          5.27560       -2.05980       -1.64680
