30

C         -0.12230       -1.23480        0.02540
N         -1.11490       -0.18060       -0.00990
C         -2.60410       -0.18750       -0.06510
C         -0.38960        0.98920       -0.02160
C         -0.82500        2.46260       -0.03720
C          0.93350        0.64410       -0.00210
C          2.11150        1.59970        0.00350
N          1.05580       -0.69770       -0.00170
C          2.30430       -1.42430       -0.02890
Ni        -0.49020       -3.48260       -0.01010
Br        -0.25210       -3.46830       -2.58900
C         -0.68780       -3.49460        2.13080
C         -0.62240       -2.40350        2.90150
C         -0.77980       -5.61270       -0.04860
O         -0.94390       -6.81950       -0.07050
H         -3.00310       -1.21660       -0.05340
H         -3.01200        0.35220       -0.96680
H         -2.98770        0.35290        0.81990
H         -1.91420        2.65340       -0.04120
H         -0.37960        3.01040       -0.90600
H         -0.40720        2.97650        0.86420
H          1.82330        2.67370       -0.00860
H          2.73150        1.41800       -0.89660
H          2.72430        1.43280        0.91630
H          3.16740       -0.72450       -0.04930
H          2.33820       -2.02460       -0.95260
H          2.45460       -2.06790        0.85850
H         -0.87220       -4.44890        2.61340
H         -0.47530       -1.41610        2.49730
H         -0.73890       -2.47980        3.97800
