42

C          1.02400       -0.65300       -0.05500
N          1.05490        0.62440       -0.06090
C          2.26170        1.40930       -0.16300
C         -0.26690        1.18960        0.05780
C         -1.19750       -0.03270        0.04120
N         -0.29080       -1.15860        0.03370
C         -0.69310       -2.53510        0.06400
C         -2.05960       -2.88000        0.12560
C         -2.46110       -4.21820        0.16330
C         -1.50810       -5.23660        0.13980
C         -0.15220       -4.91770        0.08090
C          0.25560       -3.58040        0.04500
Ni         2.78020       -1.86970       -0.29550
Br         2.36630       -1.96220       -2.85050
C          3.12380       -1.79300        1.82550
C          2.33440       -1.11450        2.66750
N          4.49560       -3.05820       -0.53040
C          5.02510       -3.26900       -1.78760
C          6.15730       -4.05670       -2.01240
C          6.76660       -4.70050       -0.95350
C          6.24800       -4.52990        0.31540
C          5.13990       -3.69900        0.51030
H          3.16340        0.76200       -0.23470
H          2.35800        2.06290        0.72960
H          2.21220        2.04810       -1.07120
H         -0.49200        1.87000       -0.79240
H         -0.33720        1.74020        1.02300
H         -1.80110       -0.06050       -0.89350
H         -1.85770       -0.03860        0.93510
H         -2.82610       -2.11790        0.14730
H         -3.51320       -4.46600        0.21190
H         -1.82130       -6.27210        0.16910
H          0.58720       -5.70810        0.06500
H          1.30900       -3.38310        0.00500
H          3.93240       -2.23440        2.35660
H          1.45530       -0.57330        2.36170
H          2.56790       -1.09910        3.72890
H          4.65900       -2.80020       -2.66460
H          6.55660       -4.16520       -3.01330
H          7.62930       -5.33330       -1.11610
H          6.69160       -5.05370        1.15330
H          4.80130       -3.71510        1.50790
