68

P          0.91760       -0.05430       -0.01620
C         -0.06340        0.56160       -1.65050
C         -1.61960        0.62000       -1.71500
C          0.33500        2.01440       -2.06700
C          0.31330       -0.32190       -2.86290
C          0.54070       -2.00860        0.01870
C          1.24590       -2.80550       -1.10550
C          1.00470       -2.73990        1.30630
C         -0.96820       -2.37210       -0.03500
C          0.16720        1.09020        1.38380
C         -1.38030        0.94950        1.49870
C          0.71330        0.67860        2.75620
C          0.44200        2.61080        1.29280
Ni         3.37760       -0.05430       -0.01620
Br         3.37760       -1.11430        2.34700
C          3.37760        0.82560       -1.97790
C          3.54020        0.34350       -3.21010
P          5.83760       -0.05430       -0.01620
N          6.86770        0.38200        1.36850
C          8.29510        0.24850        1.19420
C          8.58480       -0.32150       -0.17510
C         10.10760       -0.43280       -0.32860
C          7.83860       -1.72190       -0.24560
N          6.39590       -1.70430        0.17350
N          6.57960        0.94060       -1.24190
C          8.03670        0.68230       -1.26220
H         -2.07080        1.44670       -1.17150
H         -2.15260       -0.30630       -1.50650
H         -1.92740        0.87110       -2.75950
H         -0.07350        2.79030       -1.42950
H         -0.08800        2.28450       -3.06170
H          1.38800        2.21140       -2.16960
H         -0.31690       -1.22750       -2.90980
H          1.36260       -0.61150       -2.86650
H          0.10450        0.17370       -3.83930
H          2.33610       -2.61450       -1.09530
H          0.86530       -2.66100       -2.11230
H          1.08280       -3.89860       -0.95890
H          2.08360       -2.92850        1.29840
H          0.63170       -3.78750        1.34390
H          0.62860       -2.29280        2.23680
H         -1.44370       -2.10360       -0.97830
H         -1.53380       -2.01940        0.84220
H         -1.11510       -3.47420       -0.00130
H         -1.73440       -0.07970        1.43170
H         -1.92430        1.56780        0.78620
H         -1.76930        1.34710        2.45880
H          0.51500       -0.37330        2.98610
H          0.21570        1.25080        3.57310
H          1.78480        0.92680        2.83120
H         -0.12650        3.12270        0.51360
H          1.52150        2.83960        1.21440
H          0.04270        3.11960        2.20260
H          3.37000        1.90450       -1.89210
H          3.64740       -0.70570       -3.43450
H          3.56280        1.06760       -4.02830
H          6.53890       -0.07420        2.25510
H          8.70750       -0.42600        1.97790
H          8.75960        1.25340        1.33070
H         10.54110       -1.08450        0.45580
H         10.58050        0.58500       -0.19460
H         10.39510       -0.80620       -1.32680
H          8.37780       -2.43990        0.40540
H          7.92630       -2.09920       -1.28890
H          6.27260       -2.02920        1.15840
H          6.39250        1.93480       -0.97770
H          8.57110        1.66540       -1.16060
H          8.29740        0.29890       -2.27180
