44

C          1.02400       -0.65300       -0.05500
N          1.04050        0.62370       -0.13340
C          2.25940        1.41220       -0.29980
C          2.18110        2.26870       -1.56960
C          2.48150        2.30440        0.93070
C         -0.28350        1.17970        0.03580
C         -1.20380       -0.04640        0.05920
N         -0.27820       -1.14770        0.17170
C         -0.62900       -2.53240        0.43940
C         -1.33910       -2.62980        1.79740
C         -1.52210       -3.09590       -0.66850
Ni         2.78020       -1.86970       -0.29550
Br         3.18470       -1.79130        2.26150
C          2.44440       -1.93480       -2.41810
C          1.34800       -1.44630       -3.00770
O          4.45470       -3.02990       -0.52480
C          5.25730       -3.41420        0.45810
N          6.24110       -4.22740        0.03310
C          6.02380       -4.35210       -1.28070
C          4.93180       -3.59430       -1.62390
H          3.13750        0.73530       -0.39200
H          1.33720        2.98940       -1.51330
H          2.04400        1.61780       -2.45710
H          3.12050        2.84960       -1.69520
H          1.64880        3.02920        1.05870
H          3.42610        2.87930        0.82710
H          2.55140        1.67950        1.84630
H         -0.58420        1.87390       -0.77790
H         -0.31550        1.70290        1.01640
H         -1.74480       -0.16350       -0.90700
H         -1.92030        0.02960        0.90180
H          0.29860       -3.14430        0.48500
H         -2.29250       -2.06030        1.79260
H         -0.68740       -2.21660        2.59780
H         -1.57540       -3.68550        2.04250
H         -2.47090       -2.52230       -0.74800
H         -1.77190       -4.15640       -0.44990
H         -0.99170       -3.05460       -1.64270
H          3.15770       -2.30390       -3.12000
H          0.53250       -0.99670       -2.46540
H          1.26160       -1.47930       -4.09010
H          5.19150       -3.13940        1.48950
H          6.60830       -4.97760       -1.94220
H          4.56010       -3.59080       -2.62200
