71

C          1.02400       -0.65300       -0.05500
N          0.93460        0.67680       -0.28990
C          1.93320        1.76100       -0.59880
C          1.66100        3.02540       -1.28340
C          0.41280        3.42210       -2.03110
C          2.63960        4.07460       -1.29430
C          3.87400        3.94140       -0.66030
C          4.92910        5.00020       -0.55340
C          4.15050        2.77370       -0.04060
C          3.22330        1.75310       -0.00800
C          3.62200        0.70900        0.80380
C         -0.39540        1.07870        0.10270
C         -1.20200       -0.18570        0.16860
N         -0.24560       -1.21600        0.53330
C         -0.76330       -2.53780        1.08560
C         -0.13420       -3.83240        0.91040
C          1.18170       -4.06650        0.33710
C         -0.72350       -5.04420        1.29630
C         -1.92980       -5.10800        1.94060
C         -2.52500       -6.46030        2.27490
C         -2.53460       -3.91370        2.28550
C         -2.00150       -2.64880        1.89320
C         -2.80350       -1.49970        2.48860
Ni         2.78020       -1.86970       -0.29550
Br         3.32050       -1.58730        2.22170
C          2.33170       -2.10410       -2.38510
C          1.20630       -1.69290       -2.97390
N          4.49560       -3.05820       -0.53040
C          5.58320       -2.80010        0.25720
C          6.80770       -3.46570        0.05560
O          7.93900       -3.14630        0.73740
C          8.06860       -2.10660        1.63690
C          6.87560       -4.45620       -0.92180
C          5.75610       -4.74590       -1.69390
C          4.57900       -4.02220       -1.49800
H         -0.33220        2.64090       -2.19890
H          0.70080        3.73810       -3.05540
H         -0.04930        4.30120       -1.52640
H          2.43220        5.01790       -1.78370
H          4.64230        5.93820       -1.05620
H          5.88610        4.61570       -0.97380
H          5.10890        5.21040        0.52850
H          5.10420        2.67850        0.47620
H          4.59340        0.78970        1.33640
H          3.71080       -0.12620        0.10520
H          2.81110        0.72930        1.57150
H         -0.96120        1.75950       -0.53550
H         -0.31580        1.53940        1.11320
H         -1.56390       -0.45950       -0.84490
H         -2.03050        0.01340        0.81510
H          1.46680       -3.14020        0.01770
H          1.17090       -4.75840       -0.52200
H          1.85890       -4.44380        1.14720
H         -0.20880       -5.98350        1.10060
H         -1.99140       -7.27510        1.73400
H         -3.58580       -6.52190        1.94750
H         -2.45550       -6.67550        3.36010
H         -3.45840       -3.98300        2.85370
H         -3.50460       -1.84260        3.28570
H         -3.48710       -1.01800        1.76710
H         -2.12190       -0.79970        3.01910
H          3.07760       -2.51890       -3.04740
H          0.40170       -1.21680       -2.43560
H          1.09490       -1.81610       -4.04770
H          5.54540       -2.00900        0.97820
H          9.12890       -2.02760        1.95260
H          7.43590       -2.28940        2.52990
H          7.78210       -1.14390        1.15780
H          7.80270       -4.98740       -1.09760
H          5.80430       -5.51330       -2.45580
H          3.73180       -4.27670       -2.11040
