55

C          2.32700        0.03400        0.00000
N          1.49050        1.12880       -0.06120
C          1.81290        2.56830       -0.13870
C          2.69480        2.98820        1.03390
C          2.43400        2.96870       -1.47640
C          0.23320        0.61770       -0.02940
C          0.30370       -0.74300        0.11300
C         -0.84450       -1.53790        0.17910
C         -2.09570       -0.91470        0.10230
C         -2.17790        0.48100       -0.03640
C         -1.01150        1.26480       -0.09950
N          1.59570       -1.11670        0.19210
C          2.03270       -2.49380        0.52540
C          1.39360       -2.96520        1.85300
C          0.53370       -4.09090        1.89720
C         -0.08920       -4.48180        3.09380
C          0.14260       -3.77180        4.27070
C          0.99960       -2.67200        4.25570
C          1.61680       -2.27060        3.06010
Ni         4.47690        0.05800        0.00140
Br         4.47400        0.16280        2.58930
C          4.47930       -0.02900       -2.14680
C          3.37630       -0.05620       -2.90150
N          6.57670        0.08150        0.00280
C          7.12200        0.77570        1.05550
C          8.48080        1.00770        1.18320
C          9.34120        0.51660        0.22300
Cl        11.05940        0.83830        0.37290
C          8.81850       -0.20050       -0.85660
C          7.42540       -0.40320       -0.96060
H          0.87890        3.15910       -0.05600
H          3.68340        2.49170        0.96860
H          2.20270        2.71180        1.99100
H          2.84520        4.08910        1.02250
H          3.41850        2.48940       -1.62700
H          2.57110        4.07350       -1.49910
H          1.74750        2.69960       -2.30760
H         -0.79970       -2.60990        0.27730
H         -2.99550       -1.51450        0.15150
H         -3.15080        0.95030       -0.09480
H         -1.10540        2.33230       -0.21200
H          3.13870       -2.53330        0.61510
H          1.72180       -3.17720       -0.29190
H          0.32070       -4.66060        1.00250
H         -0.76060       -5.33290        3.11220
H         -0.34410       -4.07170        5.19420
H          1.17630       -2.12550        5.17490
H          2.25800       -1.40920        3.08210
H          5.41070       -0.04430       -2.68710
H          2.38020       -0.04190       -2.48780
H          3.46640       -0.09550       -3.98240
H          6.52460        1.26270        1.78980
H          8.84470        1.59700        2.01900
H          9.49080       -0.57950       -1.61310
H          7.06530       -0.95800       -1.80710
