57

C          2.32700        0.03400        0.00000
N          1.52220        1.12480       -0.01430
C          1.92740        2.52490       -0.23490
C          2.64030        2.69220       -1.60530
C          1.76330        2.31850       -2.82340
C          2.50780        2.54830       -4.14560
C          0.26120        0.64050       -0.01090
C          0.31250       -0.72480        0.02800
C         -0.84810       -1.50870        0.07390
C         -2.08710       -0.85140        0.04890
C         -2.14430        0.55710       -0.02490
C         -0.96240        1.32220       -0.05520
N          1.59940       -1.12750        0.01870
C          2.03550       -2.53080        0.22980
C          3.35010       -2.70680        1.02200
C          3.29340       -2.09640        2.43050
C          4.59520       -2.33040        3.19920
Ni         4.47690        0.05800        0.00140
Br         4.45910        1.52020        2.13910
C          4.49160       -1.15580       -1.77310
C          3.42470       -1.56360       -2.46800
N          6.57670        0.08150        0.00280
C          7.38610       -0.94260       -0.49000
Cl         6.85890       -2.59570       -0.84730
C          8.78120       -0.87120       -0.40840
C          9.39130        0.23620        0.14510
C          8.60310        1.24940        0.65970
C          7.21040        1.14170        0.60610
H          2.59360        2.86390        0.57840
H          1.04470        3.19780       -0.23890
H          3.56050        2.06960       -1.62210
H          2.93980        3.75700       -1.71280
H          0.84040        2.93820       -2.83340
H          1.47000        1.24790       -2.77130
H          2.78420        3.61880       -4.25980
H          1.86070        2.26710       -5.00550
H          3.43050        1.93130       -4.19030
H         -0.81200       -2.58890        0.11730
H         -3.00170       -1.43030        0.07690
H         -3.10930        1.04720       -0.05530
H         -1.02620        2.39960       -0.10940
H          2.06500       -3.07330       -0.73430
H          1.27110       -3.05470        0.84400
H          4.19970       -2.27340        0.47210
H          3.54210       -3.79930        1.11980
H          2.45390       -2.53820        3.00900
H          3.12570       -1.00720        2.35060
H          4.75180       -3.41520        3.38210
H          4.54410       -1.81260        4.18080
H          5.46420       -1.92770        2.63540
H          5.40520       -1.40680       -2.26360
H          2.41040       -1.33300       -2.20550
H          3.56550       -2.13530       -3.38030
H          9.39610       -1.70510       -0.72850
H         10.47030        0.28630        0.21000
H          9.06940        2.11750        1.10630
H          6.66640        1.97770        0.99170
