55

C         -0.32800       -1.08200        0.00300
N          0.91350       -0.64930       -0.29260
H          1.73200       -1.22760       -0.58340
C          0.84730        0.69550       -0.22600
Cl         2.16380        1.78560       -0.61490
C         -0.41960        1.05500        0.17400
Cl        -1.02670        2.67450        0.46490
N         -1.15090       -0.06030        0.31160
Ni        -0.94440       -3.14170        0.01670
Br         1.16580       -3.76410        1.38340
C         -2.69610       -2.62500       -1.11790
C         -3.07550       -1.44700       -1.62630
C         -1.56080       -5.20140        0.03030
N         -2.91350       -5.65020        0.20340
C         -4.28540       -5.03770        0.59250
C         -5.03030       -4.03210       -0.33900
C         -6.43680       -3.40020       -0.27600
C         -6.49200       -2.23720       -1.31610
C         -2.81590       -7.01650        0.11540
C         -1.52120       -7.41650       -0.07740
C         -1.17190       -8.78120       -0.15230
C         -2.16140       -9.74460       -0.04380
C         -3.48990       -9.35920        0.11460
C         -3.83350       -8.00500        0.19630
N         -0.70020       -6.32280       -0.19090
C          0.70620       -6.62530       -0.75550
C          1.84600       -5.82570       -0.24710
C          3.37370       -5.83210       -0.41160
C          4.07770       -6.97380        0.30760
H         -2.14420       -0.12280        0.62870
H         -3.16230       -3.49710       -1.46400
H         -2.57760       -0.51380       -1.46620
H         -3.90940       -1.41400       -2.31450
H         -4.20350       -4.58750        1.60240
H         -5.04340       -5.81920        0.70010
H         -4.96820       -4.43280       -1.38370
H         -4.54710       -3.11970       -0.00880
H         -6.60950       -2.95370        0.72850
H         -7.21980       -4.13620       -0.51080
H         -5.74000       -1.44990       -1.07980
H         -7.47150       -1.71660       -1.31580
H         -6.28790       -2.59450       -2.35380
H         -0.17690       -9.17050       -0.27220
H         -1.89310      -10.79310       -0.08540
H         -4.25180      -10.12470        0.18250
H         -4.88010       -7.79730        0.31040
H          0.67520       -6.56030       -1.86010
H          1.05590       -7.63330       -0.50530
H          1.74380       -6.03880        0.84230
H          1.59000       -4.86040       -0.73530
H          3.72660       -4.90720        0.11640
H          3.68320       -5.73640       -1.46880
H          3.79110       -6.99350        1.38480
H          5.17600       -6.80240        0.26560
H          3.82090       -7.93450       -0.17070
