67

C          1.02400       -0.65300       -0.05500
N          1.02840        0.66220        0.00920
C          2.17040        1.59780        0.06830
C          3.45340        1.34360       -0.54750
C          3.74160        0.24340       -1.52450
C          4.55850        2.19940       -0.31940
C          4.43920        3.34110        0.46470
C          5.61040        4.23530        0.77880
C          3.20080        3.67730        0.96460
C          2.07100        2.86500        0.78150
C          0.82350        3.44020        1.41380
C         -0.34550        1.09370        0.11840
C         -1.17800       -0.12120       -0.22690
N         -0.29070       -1.22130        0.00090
C         -0.68740       -2.61920        0.18130
C         -1.93280       -3.14770       -0.34340
C         -3.04750       -2.40840       -1.05970
C         -2.22780       -4.51790       -0.21000
C         -1.38400       -5.39240        0.45370
C         -1.68660       -6.85700        0.55490
C         -0.25010       -4.89940        1.05690
C          0.10800       -3.54910        0.95750
C          1.30540       -3.19860        1.78720
Ni         2.78020       -1.86970       -0.29550
Br         1.81780       -2.82240       -2.50330
C          3.57910       -1.07890        1.53720
C          2.89930       -0.34000        2.42090
N          4.49560       -3.05820       -0.53040
C          4.81770       -3.57030       -1.76430
C          5.92260       -4.40220       -1.95630
C          6.70930       -4.75570       -0.87160
F          7.76670       -5.58840       -1.03460
C          6.39330       -4.25730        0.38370
C          5.29800       -3.40070        0.53360
H          2.84210       -0.30750       -1.82030
H          4.54100       -0.42510       -1.14300
H          4.11820        0.70350       -2.46790
H          5.52100        1.97970       -0.76120
H          6.55330        3.87080        0.32430
H          5.75140        4.26600        1.88380
H          5.41410        5.27120        0.42860
H          3.13010        4.60030        1.53690
H          0.98470        4.44300        1.86520
H          0.47720        2.80030        2.24280
H          0.05040        3.62180        0.64050
H         -0.60020        1.91380       -0.59180
H         -0.56260        1.34290        1.17000
H         -1.36900       -0.07520       -1.32100
H         -2.08520       -0.12290        0.41680
H         -3.00960       -1.33120       -1.17910
H         -3.98930       -2.57250       -0.48900
H         -3.17460       -2.82440       -2.07830
H         -3.14450       -4.91350       -0.63330
H         -2.63040       -7.11840        0.03410
H         -1.76670       -7.15370        1.62130
H         -0.85700       -7.42800        0.08380
H          0.36540       -5.59650        1.61790
H          1.67840       -4.04140        2.41090
H          1.06290       -2.37970        2.49470
H          2.14580       -3.02050        1.15570
H          4.62230       -1.18850        1.77840
H          1.85420       -0.09860        2.30750
H          3.41030        0.05640        3.29320
H          4.27090       -3.32270       -2.64660
H          6.15890       -4.77340       -2.94570
H          6.98040       -4.54780        1.24570
H          5.07770       -3.12210        1.54090
