33

N         -0.65900       -1.22800       -0.05100
C         -1.35110       -0.04620       -0.12980
F         -2.66480       -0.03170       -0.46480
C         -0.68110        1.17920       -0.06210
C          0.69380        1.19940        0.16020
C          1.38830       -0.00110        0.25070
C          0.70030       -1.20440        0.08650
Ni        -1.57560       -3.10440       -0.27260
Br         0.45490       -3.93360       -1.65000
C         -3.26120       -2.41590        0.87090
C         -3.28010       -1.37840        1.71960
N         -2.49230       -4.98070       -0.49410
C         -1.70980       -6.04140       -0.90010
C         -2.20340       -7.31670       -1.11930
C         -3.57120       -7.56260       -0.98240
O         -4.12020       -8.77960       -1.24430
C         -3.41210       -9.91410       -1.59190
C         -4.37660       -6.51790       -0.57410
C         -3.83140       -5.25550       -0.30520
H         -1.21930        2.10750       -0.20000
H          1.22100        2.14010        0.24280
H          2.45530       -0.00410        0.43960
H          1.25140       -2.12610        0.17830
H         -4.21280       -2.88320        0.86520
H         -2.42640       -0.75720        1.93220
H         -4.20350       -1.12600        2.23630
H         -0.65890       -5.98530       -0.99990
H         -1.51250       -8.10020       -1.40690
H         -4.12470      -10.74020       -1.78750
H         -2.74060      -10.20680       -0.75800
H         -2.81850       -9.73570       -2.51310
H         -5.44750       -6.66920       -0.48030
H         -4.56340       -4.53330       -0.06410
