43

P          0.93440       -0.02660        0.07070
O         -0.45830        0.91640        0.36510
C         -0.15480        1.70920        1.52210
O          0.59130       -0.39940       -1.56040
C          0.70760        0.75640       -2.35020
O          0.61510       -1.11990        1.36120
C         -0.72760       -1.56140        1.27410
Ni         3.39440       -0.02660        0.07070
Br         3.43470       -2.48660        0.35450
C          3.28360        2.03310       -0.16140
C          3.27650        2.85130        0.88660
P          5.85440       -0.02660        0.07070
C          7.20780       -1.05150       -0.60560
C          6.30890        1.63120       -0.52850
C          6.29830       -0.44070        1.80290
C          7.12180       -1.52970        2.21830
C          7.56310       -1.62920        3.53040
C          7.20870       -0.66780        4.47020
C          6.38350        0.39060        4.10100
C          5.93380        0.51300        2.77310
H         -0.63650        2.70400        1.43600
H          0.91960        1.93340        1.68120
H         -0.52610        1.20560        2.43800
H          0.14950        0.57480       -3.29380
H          1.76880        0.93830       -2.61150
H          0.23170        1.65480       -1.89900
H         -0.86190       -2.44320        1.93750
H         -1.01510       -1.87980        0.24740
H         -1.43850       -0.80150        1.64710
H          3.22230        2.44660       -1.16390
H          3.33230        2.45880        1.89720
H          3.20890        3.92620        0.74310
H          7.16430       -0.93090       -1.71060
H          7.01250       -2.13190       -0.45570
H          8.21080       -0.72670       -0.26700
H          5.98100        1.73860       -1.58420
H          7.40690        1.76730       -0.47120
H          5.84050        2.41580        0.09290
H          7.47760       -2.29330        1.55540
H          8.21500       -2.44560        3.81770
H          7.58010       -0.73370        5.48520
H          6.12720        1.15770        4.82080
H          5.34800        1.37290        2.50200
