29

N         -0.65900       -1.22800       -0.05100
C         -1.32880       -0.05000       -0.27940
Cl        -2.95630       -0.03740       -0.95840
C         -0.64640        1.17330       -0.23800
C          0.70330        1.19910        0.09970
C          1.37520        0.00270        0.32150
C          0.68640       -1.20420        0.18340
Ni        -1.57560       -3.10440       -0.27260
Br         0.37510       -3.81860       -1.67460
C         -3.25890       -2.52830        0.91570
C         -3.36180       -1.41360        1.63920
N         -2.49230       -4.98070       -0.49410
C         -1.69590       -6.07590       -0.67930
C         -2.24410       -7.35490       -0.79820
Cl        -1.20710       -8.77020       -0.77900
C         -3.62310       -7.49580       -0.90010
C         -4.43300       -6.37210       -0.79140
C         -3.85380       -5.13260       -0.51190
H         -1.14820        2.09660       -0.50010
H          1.23620        2.14000        0.15510
H          2.42530        0.00780        0.58550
H          1.21620       -2.12890        0.36210
H         -4.06000       -3.22540        1.12480
H         -2.60570       -0.65440        1.66900
H         -4.20640       -1.27530        2.30360
H         -0.62710       -5.99000       -0.58430
H         -4.06480       -8.46960       -1.06050
H         -5.50390       -6.45580       -0.92750
H         -4.51770       -4.28730       -0.50350
