51

P          1.06800       -0.02090       -0.07030
O         -0.28640        0.88890        0.47120
C          0.04550        1.34770        1.78600
O          0.72450        0.06050       -1.74210
C          0.86620        1.37720       -2.21230
O          0.71090       -1.39600        0.89520
C         -0.67050       -1.72440        0.73680
Ni         3.52800       -0.02090       -0.07030
Br         3.52800       -2.29820       -1.30400
C          3.52800        1.86950        0.95380
C          3.30730        3.05460        0.39170
P          5.98800       -0.02090       -0.07030
N          7.26010       -1.19110       -0.57930
C          8.67410       -1.19690       -0.22990
C          6.71330       -2.53320       -0.83460
N          6.49680        1.15690       -1.29510
C          5.99080        0.83590       -2.63070
C          6.32720        2.56290       -0.94210
N          6.30040        0.35570        1.64160
C          5.85890       -0.76550        2.47990
C          7.69760        0.70700        1.94520
H         -0.45510        2.30970        1.97340
H          1.12650        1.55080        1.94620
H         -0.27760        0.60910        2.54090
H          0.16470        1.50440       -3.06480
H          1.89840        1.53450       -2.58430
H          0.58000        2.16220       -1.47870
H         -0.86230       -2.74230        1.10410
H         -1.01140       -1.67620       -0.32280
H         -1.32340       -1.06170        1.35930
H          3.70180        1.82880        2.02430
H          3.11340        3.15070       -0.66840
H          3.32990        3.94550        1.01470
H          9.09780       -0.18190       -0.23620
H          9.22490       -1.77320       -1.01260
H          8.83310       -1.76680        0.71170
H          6.13790       -2.51090       -1.78110
H          6.07400       -2.88010        0.00970
H          7.49510       -3.30260       -1.01160
H          6.21380       -0.22090       -2.89070
H          6.51150        1.46530       -3.38620
H          4.89600        1.00830       -2.69280
H          6.63300        2.75610        0.10380
H          5.29820        2.89290       -1.12460
H          6.98620        3.17650       -1.59400
H          4.76420       -0.90970        2.36950
H          6.07660       -0.55390        3.53950
H          6.38410       -1.70090        2.19310
H          8.10420        1.39210        1.18310
H          8.33550       -0.18170        2.05990
H          7.73720        1.21100        2.93000
