48

N         -1.42520       -0.32370       -0.26990
C         -0.71640       -0.03060       -1.38960
C          0.68380       -0.18650       -1.41510
C          1.47620       -0.05380       -2.68630
C          1.35010       -0.50270       -0.22770
C          0.61460       -0.74470        0.92810
C         -0.78460       -0.71300        0.87670
Ni        -3.47560       -0.20170       -0.28210
Br        -3.50270       -2.56330        0.78100
C         -3.45320        1.75870       -1.16460
C         -2.43260        2.59580       -1.36240
P         -5.87540       -0.01190       -0.39730
C         -7.21120        1.13560       -0.78600
C         -6.08540       -1.08090       -1.91630
C         -7.28450       -1.82500       -2.14470
C         -7.40780       -2.71620       -3.23230
C         -6.35560       -2.87430       -4.12950
C         -5.18290       -2.14020       -3.94640
C         -5.04410       -1.25910       -2.85140
C         -6.40000       -1.00770        1.03110
C         -6.61120       -0.34640        2.25300
C         -6.95560       -1.07240        3.39510
C         -7.08930       -2.46170        3.32920
C         -6.90590       -3.12390        2.11400
C         -6.57180       -2.39940        0.96690
H         -1.24340        0.20390       -2.30470
H          0.81870        0.14700       -3.55730
H          2.00510       -1.01590       -2.88550
H          2.23530        0.75070       -2.60260
H          2.43400       -0.57910       -0.20180
H          1.12980       -0.96600        1.85520
H         -1.34560       -0.88650        1.78130
H         -4.41730        2.10210       -1.52270
H         -1.41240        2.37800       -1.09390
H         -2.63680        3.54450       -1.85620
H         -6.93180        1.73310       -1.68130
H         -7.17120        1.86520        0.06060
H         -8.22460        0.71440       -0.82990
H         -8.12440       -1.76100       -1.46610
H         -8.31160       -3.30390       -3.38030
H         -6.44640       -3.57070       -4.96230
H         -4.37300       -2.27400       -4.65320
H         -4.11420       -0.72980       -2.73340
H         -6.49990        0.72850        2.31780
H         -7.10500       -0.55700        4.33350
H         -7.33260       -3.02510        4.21920
H         -7.00640       -4.20060        2.06100
H         -6.41450       -2.94470        0.04830
