81

O         -0.32800       -1.08200        0.00300
C         -0.94130       -0.14260        0.68450
C         -0.35260        1.07290        0.40710
C          0.58480        0.83410       -0.57690
C          0.56790       -0.52760       -0.80630
Ni        -0.91570       -3.04590        0.01600
Br        -3.35540       -2.31890       -0.46090
C          1.10950       -3.64940        0.41190
C          1.73180       -2.51060        0.80620
C         -1.53210       -5.10560        0.02970
N         -0.87550       -6.54170       -0.04380
C          0.44080       -7.57320       -0.43150
C          1.70370       -7.02180       -0.50740
C          1.53090       -5.87320       -0.48290
C          1.22820       -6.02350        1.34010
C          0.73620       -5.31710       -1.84530
C          3.00980       -7.43820       -0.12710
C          3.18640       -8.66990        0.30900
C          2.09720       -9.49540        0.14940
C          0.75500       -9.01040       -0.30690
C          0.39500       -9.78830       -1.56520
C          1.12330       -9.12150       -2.79630
C          0.85200      -11.26280       -1.53750
C         -1.71520       -7.30640        0.68700
C         -2.83910       -6.61760        0.98280
N         -2.84780       -5.37770        0.43900
C         -4.10940       -5.16830       -0.27980
C         -5.21010       -4.29190        0.12920
C         -5.45590       -3.72330        1.54490
C         -6.98300       -3.78050        1.83340
C         -4.77010       -4.54520        2.63560
C         -6.05400       -3.78930       -0.89590
C         -6.03590       -4.30820       -2.17500
C         -5.26960       -5.43440       -2.44400
C         -4.33650       -5.91370       -1.51010
C         -3.54050       -7.21620       -1.80370
C         -3.93570       -8.53800       -0.98660
C         -3.11000       -7.48180       -3.24830
H         -1.71970       -0.32510        1.41410
H         -0.59300        2.02640        0.85900
H          1.19570        1.57250       -1.07720
H          1.14070       -1.05740       -1.55670
H          1.85410       -4.19560        0.57120
H          1.48380       -1.50170        1.00710
H          2.81340       -2.55450        1.04770
H          2.47800       -5.35900       -0.80610
H          2.14620       -6.09310        1.93000
H          0.60970       -6.86110        1.79080
H          0.58800       -5.26840        1.89110
H          0.11110       -4.67880       -1.33500
H         -0.06270       -4.77390       -2.41310
H          1.35260       -4.52970       -2.27830
H          3.83540       -6.71330       -0.01140
H          4.18550       -8.94460        0.65170
H          2.43390      -10.51210        0.23740
H         -0.69550       -9.71850       -1.69380
H          2.23830       -9.11660       -2.68020
H          0.83840       -8.05640       -2.94350
H          0.90000       -9.64180       -3.74720
H          1.96440      -11.34130       -1.66430
H          0.42050      -11.82030       -2.38190
H          0.57650      -11.72010       -0.56550
H         -1.55980       -8.33220        0.95730
H         -3.73290       -7.12190        1.38770
H         -5.15280       -2.65600        1.63530
H         -7.38210       -4.79450        1.60640
H         -7.54990       -3.04960        1.22070
H         -7.22100       -3.52340        2.88400
H         -5.11500       -5.60170        2.57690
H         -5.03720       -4.15430        3.63960
H         -3.67100       -4.48940        2.55770
H         -6.73170       -2.96280       -0.71940
H         -6.68320       -3.87820       -2.92940
H         -5.38270       -5.89810       -3.41040
H         -2.56810       -6.91990       -1.51200
H         -3.53850       -9.47820       -1.42410
H         -3.48450       -8.70590       -0.00980
H         -4.98980       -8.56160       -0.62760
H         -3.65550       -8.32830       -3.70190
H         -2.01890       -7.74910       -3.28290
H         -3.19940       -6.55840       -3.84980
