41

N          1.02070       -0.09190       -0.03350
C          0.58870       -0.16190        1.37340
C          0.54790        1.17130       -0.64430
C          0.35260       -1.18720       -0.77880
Ni         3.12070       -0.09190       -0.03350
Br         3.16560        2.20210        1.00990
C          3.03300       -1.97480       -0.94380
C          3.45770       -2.20430       -2.18750
N          5.22070       -0.09190       -0.03350
C          6.10940       -1.03500       -0.24820
C          5.96100       -2.52690       -0.32400
C          6.86970       -3.27790       -1.10610
C          6.81280       -4.67520       -1.13980
C          5.85590       -5.35530       -0.39300
C          4.96350       -4.63650        0.40880
C          5.03230       -3.23620        0.45780
N          7.42330       -0.52550       -0.25490
C          7.38560        0.88840       -0.12790
C          5.93240        1.14130        0.26750
H         -0.52040       -0.12790        1.46530
H          1.00720        0.67890        1.96090
H          0.96030       -1.10200        1.83570
H         -0.56320        1.21800       -0.69350
H          0.96150        1.27570       -1.67040
H          0.83430        2.06260       -0.06580
H         -0.75520       -1.05910       -0.77330
H          0.52040       -2.17590       -0.30880
H          0.67260       -1.19820       -1.84340
H          2.59510       -2.80080       -0.39410
H          3.89780       -1.41820       -2.78700
H          3.36780       -3.20600       -2.60390
H          7.63110       -2.79030       -1.69760
H          7.52140       -5.23050       -1.74130
H          5.81240       -6.43670       -0.42150
H          4.23150       -5.17130        1.00120
H          4.35650       -2.71170        1.12190
H          8.28120       -1.06130       -0.43690
H          7.61870        1.30250       -1.13330
H          8.09090        1.27470        0.63620
H          5.56660        2.01110       -0.30950
H          5.85700        1.30660        1.36510
