61

N         -0.67900        1.19300        0.00100
C          0.69100        1.19450        0.06360
C          1.45800        2.47930        0.04750
C          1.40710       -0.01040        0.02230
C          0.72220       -1.22400       -0.04460
C          1.46170       -2.53190       -0.04540
C         -0.67100       -1.21030       -0.11890
C         -1.36520        0.01250       -0.13160
C         -2.86480       -0.00160       -0.16920
Ni        -1.69140        3.03290        0.00550
Br        -2.04510        2.70750       -2.43310
C         -1.32660        3.17540        2.07780
C         -0.73300        2.22810        2.81320
P         -2.87730        5.18810        0.01070
O         -2.90370        6.48050        1.12250
C         -1.51130        6.74430        1.42270
C         -0.72090        7.40110        0.26930
C         -1.36870        7.61980        2.66630
O         -3.35190        6.33910       -1.17950
C         -2.82480        6.12630       -2.47850
C         -4.03680        5.81420       -3.33320
C         -2.11360        7.38420       -3.04490
O         -4.40500        4.56770        0.50490
C         -4.66850        4.11270        1.81230
C         -4.32950        5.06020        2.97990
C         -6.19790        3.93680        1.85490
H          0.78360        3.35840        0.06710
H          2.04570        2.52320       -0.89860
H          2.16210        2.52020        0.90210
H          2.49110        0.00160        0.04010
H          2.56260       -2.38200       -0.04390
H          1.19010       -3.12180       -0.94600
H          1.18860       -3.11180        0.86180
H         -1.20880       -2.15030       -0.16650
H         -3.25790       -1.04270       -0.18060
H         -3.24010        0.51230       -1.07140
H         -3.26440        0.49610        0.74010
H         -1.63390        4.03590        2.60480
H         -0.40060        1.28630        2.42640
H         -0.61870        2.38830        3.88920
H         -0.96210        5.81440        1.67560
H         -1.16600        8.37260       -0.02370
H         -0.66250        6.72680       -0.60580
H          0.33700        7.56990        0.57540
H         -1.82940        8.61350        2.49960
H         -0.28710        7.76720        2.89910
H         -1.83030        7.12820        3.54490
H         -2.08080        5.31450       -2.54830
H         -4.75680        6.65790       -3.24200
H         -4.51200        4.89280       -2.93950
H         -3.76740        5.67090       -4.39880
H         -2.70460        8.30570       -2.86780
H         -1.96130        7.28700       -4.14640
H         -1.09690        7.52820       -2.62460
H         -4.19180        3.12150        1.93670
H         -4.84150        6.04110        2.87310
H         -3.25820        5.24370        3.10190
H         -4.65990        4.59210        3.93140
H         -6.70530        4.92840        1.76940
H         -6.52110        3.46420        2.80460
H         -6.55400        3.31590        1.00560
