106

C          0.90100       -0.64300       -0.00200
N         -0.41460       -1.12590       -0.12230
C         -1.22320       -2.40850        0.00180
C         -0.83620       -3.56260        0.83580
C          0.58420       -3.86320        1.29570
C          0.81740       -4.67860        2.60620
C          1.08340       -4.76360        0.16380
C         -1.72860       -4.62750        1.07650
C         -2.97360       -4.67430        0.53630
C         -3.35620       -3.70720       -0.33900
C         -2.54560       -2.60180       -0.66350
C         -3.14990       -1.75070       -1.80130
C         -3.45520       -2.61730       -3.06530
C         -4.46950       -1.09200       -1.35690
C         -1.12990        0.03870       -0.15890
C         -0.32250        1.14610       -0.05790
N          0.96540        0.79150        0.07570
C          2.05640        1.87200        0.18070
C          1.94280        3.14540        0.95280
C          0.73520        3.75630        1.67400
C          1.00170        3.99260        3.17680
C          0.37930        5.12650        1.00720
C          3.06010        4.03750        1.06350
C          4.24950        3.84080        0.45180
C          4.36200        2.78570       -0.37310
C          3.30870        1.84830       -0.56460
C          3.68340        0.97850       -1.70610
C          4.67270       -0.01970       -1.21570
C          2.57740        0.53080       -2.64150
Ni         2.65840       -1.88140       -0.01350
Br         2.05560       -2.71480       -2.39050
C          3.15880       -1.18970        1.95970
C          2.33970       -0.50600        2.76150
P          4.66930       -3.29850       -0.02670
C          4.74310       -4.92700       -0.93400
C          5.52970       -5.22890       -2.07330
C          5.29740       -6.39050       -2.82600
C          4.29900       -7.28990       -2.45830
C          3.56020       -7.05330       -1.31090
C          3.79330       -5.89890       -0.56520
C          6.11480       -2.51600       -1.01730
C          7.37530       -2.19520       -0.41200
C          8.39310       -1.52480       -1.10890
C          8.22390       -1.18530       -2.44750
C          7.04660       -1.54830       -3.09700
C          6.01290       -2.21120       -2.40670
C          5.20110       -3.59350        1.72260
C          4.83040       -4.75770        2.42690
C          5.28450       -4.97580        3.72770
C          6.12700       -4.05530        4.33680
C          6.48510       -2.90510        3.64020
O          7.22090       -2.08500        4.16100
N          6.00660       -2.69300        2.36920
H          1.16480       -2.92980        1.35240
H          0.39370       -5.70910        2.57490
H          0.43450       -4.17240        3.51080
H          1.90660       -4.85900        2.73710
H          0.34720       -5.58110        0.05270
H          0.93910       -5.86160        0.21340
H          0.95060       -4.29900       -0.80860
H         -1.47550       -5.48410        1.67580
H         -3.62860       -5.51270        0.75050
H         -4.33040       -3.85770       -0.77450
H         -2.44250       -0.96960       -2.13640
H         -4.18660       -3.43480       -2.87510
H         -2.53860       -3.08930       -3.47540
H         -3.91720       -2.00110       -3.86620
H         -5.23940       -1.84570       -1.08620
H         -4.88470       -0.48320       -2.18720
H         -4.31590       -0.43670       -0.48060
H         -2.19790        0.11960       -0.21330
H         -0.69970        2.15370       -0.10790
H         -0.14580        3.11680        1.61790
H          1.87200        4.65280        3.37700
H          1.18250        3.02570        3.68330
H          0.12820        4.49790        3.63950
H          1.17590        5.89720        1.12210
H         -0.52800        5.57470        1.45910
H          0.21230        5.00990       -0.08520
H          3.03880        4.95720        1.63350
H          5.06740        4.54750        0.56250
H          5.30690        2.72510       -0.91170
H          4.24000        1.61640       -2.44590
H          4.96940        0.09520       -0.14720
H          5.61990        0.13380       -1.77420
H          4.18310       -0.98360       -1.33650
H          1.87670       -0.11560       -2.13390
H          3.00890       -0.01520       -3.50750
H          2.01710        1.41450       -3.00970
H          4.09980       -1.41190        2.38800
H          1.32700       -0.25370        2.48830
H          2.68230       -0.23340        3.75680
H          6.29260       -4.58880       -2.45540
H          5.87410       -6.57710       -3.72050
H          4.09540       -8.16740       -3.05950
H          2.78090       -7.74650       -1.01000
H          3.18090       -5.76410        0.28410
H          7.63730       -2.43090        0.59400
H          9.32250       -1.25630       -0.60550
H          9.02080       -0.65380       -2.96730
H          6.95010       -1.29770       -4.14570
H          5.12340       -2.44700       -2.95200
H          4.20120       -5.51430        2.02100
H          4.98770       -5.86960        4.26260
H          6.49040       -4.23310        5.34180
H          6.26150       -1.79420        1.91000
