93

C          1.02400       -0.65300       -0.05500
N          0.93350        0.62140        0.33350
C          1.96260        1.65830        0.78560
C          3.30380        1.94510        0.19940
C          3.99390        1.35640       -1.02960
C          4.39440        2.44200       -2.10840
C          5.30920        0.65190       -0.59210
C          4.14510        2.95140        0.75740
C          3.79080        3.73100        1.79750
C          2.57220        3.57470        2.34020
C          1.64670        2.59150        1.90570
C          0.36200        2.69450        2.70520
C          0.52840        2.70600        4.24150
C         -0.38010        3.94520        2.19130
C         -0.50440        0.92880        0.23550
C         -1.14810       -0.23860       -0.48690
N         -0.31430       -1.36300       -0.16040
C         -0.82760       -2.70580        0.45250
C         -0.20250       -4.03120        0.26500
C          0.93600       -4.25130       -0.57340
C          2.06670       -4.19720        0.39990
C          1.15010       -5.51690       -1.46770
C         -0.58080       -5.21380        0.89190
C         -1.62000       -5.27040        1.71690
C         -2.35830       -4.13970        1.88460
C         -2.04820       -2.86640        1.28880
C         -3.11690       -1.81080        1.58970
C         -4.20120       -1.93190        0.49500
C         -3.84230       -1.97160        2.95780
Ni         2.78020       -1.86970       -0.29550
Br         3.56640       -1.20470        2.08100
C          2.12760       -2.42180       -2.26830
C          1.15210       -1.88380       -3.00570
N          4.49560       -3.05820       -0.53040
C          5.21740       -3.36040       -1.72860
N          5.27440       -2.49640       -2.94400
C          4.50190       -1.28870       -3.15180
C          6.48070       -2.45080       -3.80590
C          6.23020       -4.35450       -1.68060
C          6.58920       -4.96430       -0.50580
C          6.00380       -4.55650        0.66300
C          5.00890       -3.58330        0.64450
H          3.26620        0.67940       -1.49250
H          5.11010        3.20360       -1.73590
H          3.51410        2.98690       -2.49760
H          4.92090        1.96940       -2.96150
H          6.04650        1.34800       -0.14970
H          5.86200        0.19160       -1.42570
H          5.10550       -0.12990        0.15820
H          5.12550        3.19650        0.37620
H          4.46770        4.49760        2.16680
H          2.35960        4.26610        3.13770
H         -0.23370        1.82410        2.59810
H          1.08350        3.57680        4.63740
H          1.04360        1.77900        4.57380
H         -0.47420        2.74230        4.71650
H          0.18750        4.87430        2.41860
H         -1.39010        4.03020        2.63200
H         -0.48330        3.89270        1.08370
H         -0.70870        1.87280       -0.32010
H         -1.03780        0.87240        1.17930
H         -1.03330       -0.05990       -1.57590
H         -2.22520       -0.32510       -0.34770
H          0.57310       -3.58660       -1.31660
H          2.10630       -5.05150        1.10240
H          2.05310       -3.28150        1.03260
H          2.88360       -4.39480       -0.24100
H          1.52430       -6.38890       -0.89070
H          1.98220       -5.27940       -2.17370
H          0.27880       -5.78880       -2.08560
H         -0.03330       -6.16150        0.75600
H         -1.87680       -6.20660        2.20190
H         -3.19870       -4.33680        2.50450
H         -2.65350       -0.81430        1.65280
H         -4.62700       -2.96220        0.48670
H         -3.80260       -1.75560       -0.52190
H         -5.03190       -1.22040        0.68050
H         -4.49430       -2.87250        3.01620
H         -4.54900       -1.13620        3.12150
H         -3.11060       -2.00100        3.79240
H          2.72220       -3.18000       -2.76260
H          0.54430       -1.07090       -2.66410
H          1.00100       -2.25560       -4.01670
H          3.97770       -1.04350       -2.24670
H          3.87550       -1.38980       -4.06490
H          5.12590       -0.38890       -3.34240
H          7.39430       -2.91180       -3.39090
H          6.88320       -1.41160       -3.90540
H          6.25510       -2.80440       -4.82930
H          6.80150       -4.65310       -2.54100
H          7.36300       -5.72250       -0.50400
H          6.29100       -5.03110        1.59340
H          4.54480       -3.43200        1.58990
