47

N          0.98880       -0.04880       -0.08650
C          0.02470       -0.62490       -1.01610
C          0.77450       -0.79060        1.16410
C          0.67660        1.36020       -0.00190
C         -0.52560        1.88220        0.49100
C         -0.78060        3.25220        0.40510
C          0.17260        4.10000       -0.17430
C          1.37030        3.59910       -0.68110
C          1.61480        2.23760       -0.59260
Ni         3.08880       -0.04880       -0.08650
Br         3.08880        1.41150        2.05250
C          3.08880       -1.26100       -1.86220
C          2.25410       -2.02040       -2.58240
P          5.54880       -0.04880       -0.08650
N          7.10000        0.47560        0.65300
C          6.76610        1.34630        1.81250
C          8.05700        1.19760       -0.19970
O          5.71910       -1.68710        0.36010
C          5.46580       -1.78620        1.74870
O          5.83110        0.29200       -1.72100
C          5.30130        1.59610       -1.97130
H          0.07000       -0.18670       -2.03280
H         -1.02510       -0.43850       -0.66110
H         -0.00360       -1.73820       -0.99350
H         -0.28160       -0.86730        1.48990
H          1.35720       -0.42130        2.01040
H          1.17050       -1.82600        1.00850
H         -1.28260        1.24700        0.92550
H         -1.71670        3.64330        0.79480
H         -0.03140        5.16810       -0.26380
H          2.09840        4.25620       -1.13620
H          2.53800        1.86070       -1.00350
H          4.08840       -1.29630       -2.27360
H          1.24060       -2.24770       -2.40930
H          2.64350       -2.53280       -3.45560
H          5.82770        1.05330        2.32470
H          6.64440        2.41790        1.52660
H          7.55840        1.26910        2.58620
H          7.57650        1.98840       -0.80500
H          8.62020        0.48260       -0.82420
H          8.80990        1.73060        0.43130
H          5.71470       -2.80960        2.09040
H          4.39670       -1.59200        1.98360
H          6.13310       -1.14710        2.36400
H          6.01560        2.17660       -2.58960
H          5.14730        2.24120       -1.06360
H          4.33750        1.52430       -2.50790
