28

C          0.97480       -0.05220        0.08140
O         -0.15320       -0.05210        0.08110
Ni         3.12480       -0.05220        0.08140
Br         2.93480        1.55870        1.99580
C          3.11210       -1.36960       -1.51270
C          3.59280       -0.88720       -2.66690
N          5.22480       -0.05220        0.08140
C          5.95510        1.08680        0.39210
N          5.34170        2.39980        0.33530
C          4.20700        2.65220       -0.55290
C          5.98650        3.60660        0.83700
C          7.37070        1.00070        0.39180
C          8.00470       -0.19040        0.06820
C          7.25110       -1.28840       -0.30930
C          5.86380       -1.19180       -0.32540
H          2.72820       -2.37890       -1.45030
H          3.96920        0.13380       -2.71230
H          3.62480       -1.48210       -3.57120
H          3.79430        1.73230       -1.00520
H          4.51400        3.30300       -1.40180
H          3.39680        3.20400       -0.02900
H          6.88000        3.40360        1.45250
H          5.27170        4.16540        1.47300
H          6.27920        4.25920       -0.01690
H          8.00670        1.85940        0.54750
H          9.08580       -0.24490        0.05320
H          7.73720       -2.21450       -0.59030
H          5.30680       -2.07560       -0.58910
