55

C          1.01010        0.09150       -0.03900
O         -0.11790        0.09160       -0.03930
Ni         3.16010        0.09150       -0.03900
Br         3.02720       -2.38000        0.13730
C          2.82650        2.08340       -0.52460
C          2.51220        2.43110       -1.77620
P          5.62010        0.09150       -0.03900
C          6.47600        1.79760       -0.35960
C          6.00260        2.82460        0.70590
C          8.00920        1.83580       -0.41790
C          6.02560        2.39120       -1.71830
C          6.27100       -0.67830        1.61420
C          5.71880       -2.08630        1.88750
C          7.82660       -0.78920        1.68630
C          5.85270        0.17120        2.83450
C          5.99020       -0.92290       -1.52430
C          5.50400       -0.58080       -2.79810
C          5.89400       -1.30690       -3.94240
C          6.78610       -2.40040       -3.83920
N          7.20940       -3.15480       -5.00070
C          8.43750       -3.94230       -5.00010
C          6.43080       -3.20830       -6.23100
C          7.22300       -2.75510       -2.56070
C          6.83080       -2.03900       -1.43540
H          2.81270        2.83990        0.25000
H          2.48620        1.68580       -2.56360
H          2.29420        3.46670       -2.01830
H          6.46250        2.67880        1.68460
H          4.90940        2.80000        0.84110
H          6.27720        3.86710        0.43650
H          8.48230        1.72890        0.55900
H          8.34780        2.85220       -0.72820
H          8.39760        1.10140       -1.15060
H          4.94670        2.46800       -1.80410
H          6.41820        1.82520       -2.58040
H          6.39780        3.43400       -1.84690
H          5.92260       -2.81940        1.08990
H          4.64410       -2.04210        2.11740
H          6.17440       -2.50800        2.81410
H          8.31400       -1.30600        0.84800
H          8.14480       -1.31620        2.61200
H          8.31120        0.18060        1.79650
H          4.76600        0.39380        2.81540
H          6.42750        1.09820        2.91970
H          6.09180       -0.35300        3.78720
H          4.83850        0.26060       -2.92390
H          5.49960       -0.97300       -4.89150
H          9.05360       -3.80730       -4.09140
H          9.08030       -3.61760       -5.84390
H          8.20530       -5.02170       -5.11910
H          5.47270       -2.66150       -6.17330
H          6.17570       -4.26530       -6.45850
H          7.03400       -2.80150       -7.06740
H          7.86060       -3.60350       -2.38310
H          7.22990       -2.37920       -0.51040
