48

C          0.90100       -0.64300       -0.00200
N          0.12450       -0.43860       -1.08420
C         -0.84860        0.37730       -0.63910
C         -0.60800        0.67010        0.68240
O          0.46250        0.00960        1.05100
Ni         2.65840       -1.88140       -0.01350
Br         2.80300       -1.78670       -2.49010
C          2.49220       -1.90220        2.08790
C          3.04110       -2.87660        2.85440
P          4.66930       -3.29850       -0.02670
C          5.69670       -3.11430       -1.50840
C          6.18320       -1.79580       -1.66380
C          6.85650       -1.39940       -2.81550
C          7.05310       -2.31490       -3.84310
C          6.59870       -3.63190       -3.70140
C          5.92980       -4.04220       -2.53610
C          5.65550       -2.83770        1.44510
C          6.52330       -3.75600        2.06670
C          7.18450       -3.42330        3.25340
C          7.02040       -2.15820        3.81690
C          6.21110       -1.21510        3.18110
C          5.53650       -1.54890        2.00050
C          4.05100       -5.00040       -0.29200
C          3.31720       -5.40370       -1.41290
C          2.94660       -6.75080       -1.54540
C          3.29020       -7.68490       -0.56610
C          3.98890       -7.25950        0.55570
O          4.29130       -8.05220        1.42920
N          4.34030       -5.93680        0.66930
H         -1.67370        0.73840       -1.23780
H         -1.18580        1.32260        1.32280
H          1.83310       -1.20780        2.59780
H          3.56250       -3.68580        2.41010
H          2.88770       -2.88720        3.91230
H          6.00930       -1.04380       -0.90000
H          7.19920       -0.37480       -2.91790
H          7.54960       -1.99730       -4.75110
H          6.74510       -4.33030       -4.51190
H          5.57270       -5.05350       -2.48700
H          6.68840       -4.74060        1.66290
H          7.81870       -4.15260        3.74170
H          7.52570       -1.90840        4.74170
H          6.09530       -0.22960        3.61400
H          4.90010       -0.80800        1.53470
H          3.05900       -4.69760       -2.18360
H          2.39880       -7.07830       -2.41580
H          3.01480       -8.72850       -0.67100
H          4.84620       -5.67440        1.53660
