17

C          0.93660        0.05550       -0.05390
O         -0.19140        0.05540       -0.05350
Ni         3.08660        0.05550       -0.05390
Br         2.93050        1.58420       -2.00880
C          3.03830       -1.16630        1.61210
C          2.99140       -0.60600        2.81880
O          5.13660        0.05550       -0.05390
C          5.91040        0.71810       -0.88900
N          7.21450        0.48770       -0.64310
C          7.21530       -0.36130        0.39910
C          5.91230       -0.61820        0.76460
H          3.05820       -2.24530        1.50500
H          2.97590        0.47520        2.90780
H          2.97140       -1.21830        3.71390
H          5.57620        1.36800       -1.68020
H          8.10710       -0.77210        0.85260
H          5.60150       -1.27820        1.56020
