78

P          1.07070       -0.02560        0.06590
C         -0.10450       -1.53030       -0.47820
C         -0.07630       -2.14050       -1.94340
C          1.26290       -2.70940       -2.34400
C          1.64160       -3.85610       -1.39480
C          1.42940       -3.49680        0.10560
C          0.08060       -2.84010        0.36890
C          0.62410       -0.05100        1.95010
C          1.13090        1.08450        2.88970
C          0.49470        2.44840        2.55980
C         -1.03220        2.39500        2.66200
C         -1.60840        1.21960        1.86170
C         -0.90920       -0.09630        2.23800
C          0.45070        1.28170       -1.31090
C          0.93560        2.77530       -1.29210
C          2.33350        2.98950       -1.93120
C          2.47300        2.38750       -3.33000
C          1.95840        0.95230       -3.35090
C          0.52610        0.98540       -2.84630
Ni         3.53070       -0.02560        0.06590
Br         3.45330        2.26660        1.12830
C          3.87610       -1.86820       -0.80540
C          4.40060       -2.82480       -0.01230
N          5.63070       -0.02560        0.06590
C          6.29570        0.90310        0.82820
C          7.67440        1.05610        0.82460
C          8.50040        0.28170       -0.02510
N          9.93500        0.48720       -0.11820
C         10.66890        1.44230        0.71240
C         10.78380       -0.18280       -1.10380
C          7.82360       -0.68850       -0.78370
C          6.43900       -0.83670       -0.71360
H         -1.14330       -1.18350       -0.34800
H         -0.46290       -1.55300       -2.73590
H         -0.80600       -2.97460       -2.02590
H          1.94720       -1.85480       -2.37120
H          1.26450       -3.10760       -3.39100
H          2.67500       -4.21760       -1.60670
H          0.97190       -4.70660       -1.63750
H          2.10270       -2.75430        0.51810
H          1.57270       -4.42240        0.70240
H         -0.03170       -2.67190        1.45010
H         -0.69710       -3.58980        0.09490
H          1.07760       -0.98040        2.35130
H          2.22330        1.09900        2.94380
H          0.85300        0.85640        3.94210
H          0.77430        2.71610        1.55500
H          0.87910        3.24840        3.22960
H         -1.47660        3.35080        2.30360
H         -1.30240        2.26760        3.72980
H         -1.49400        1.40240        0.78580
H         -2.69660        1.14600        2.07060
H         -1.41170       -0.94270        1.75220
H         -1.06850       -0.26080        3.32870
H         -0.63930        1.32460       -1.13140
H          0.85400        3.28130       -0.33540
H          0.22150        3.36590       -1.91820
H          3.09460        2.49540       -1.33910
H          2.55450        4.07930       -1.98250
H          3.53520        2.41920       -3.65280
H          1.87680        2.98300       -4.05530
H          2.56650        0.27740       -2.71510
H          1.98590        0.58590       -4.39920
H         -0.05530        0.19480       -3.23430
H         -0.01870        1.77770       -3.41850
H          3.89180       -2.04120       -1.86960
H          4.51190       -2.63650        1.05220
H          4.73290       -3.77610       -0.41210
H          5.78630        1.54690        1.50360
H          8.05710        1.82050        1.47300
H         10.07120        1.96170        1.47130
H         11.12710        2.22360        0.06740
H         11.47300        0.91300        1.26200
H         10.27080       -0.88820       -1.77860
H         11.57950       -0.75230       -0.58630
H         11.25120        0.57620       -1.76680
H          8.32110       -1.34660       -1.47470
H          6.08410       -1.56100       -1.42000
