106

P          1.09740       -0.01410        0.01790
C         -0.15660       -0.71480        1.40150
C         -0.28230       -2.26730        1.70250
C          0.75440       -2.87620        2.69250
C          0.95910       -1.99890        3.96940
C          1.00540       -0.45990        3.72020
C         -0.18260       -0.09890        2.83250
C          0.64310        1.93170        0.40800
C          1.00790        2.74440        1.73950
C          2.44930        3.19500        1.81780
C          2.72500        4.23480        0.73690
C          2.33080        3.65680       -0.59460
C          0.90720        3.05200       -0.67030
C          0.18860       -0.95100       -1.41700
C         -1.37160       -0.71350       -1.54870
C         -1.73660        0.67570       -2.11560
C         -1.12930        0.85730       -3.51030
C          0.38060        0.57440       -3.50870
C          0.70070       -0.78220       -2.86880
Ni         3.55740       -0.01410        0.01790
Br         3.55740        1.33120       -2.19530
C          3.55740       -1.13080        1.85520
C          4.35350       -1.97920        2.54660
C          5.70740       -0.01410        0.01790
N          6.52510       -0.68250       -1.03440
C          6.24750       -1.69450       -2.27120
C          5.14740       -1.64790       -3.19460
C          4.71170       -0.44500       -3.65930
C          4.73280       -2.51260       -4.20860
C          5.51050       -3.47560       -4.66480
C          5.02100       -4.08240       -5.98180
C          6.73910       -3.60710       -3.99610
C          7.11130       -2.76920       -2.81610
C          8.46800       -3.03070       -2.32520
C          7.75390       -0.39110       -0.66580
C          7.80770        0.44540        0.44320
N          6.58460        0.74170        0.95220
C          6.50600        1.74810        2.21100
C          7.40600        2.80670        2.74970
C          8.73100        3.22480        2.21590
C          7.08840        3.55590        3.98420
C          5.92560        3.31230        4.74200
C          5.44570        3.84850        6.07830
C          5.13360        2.36160        4.28540
C          5.46970        1.64710        3.16860
C          4.78930        0.55750        3.16490
H         -1.13940       -0.39500        1.06050
H         -0.39410       -2.89720        0.80010
H         -1.24880       -2.39010        2.24940
H          1.69030       -3.09990        2.15950
H          0.41670       -3.88670        3.02940
H          1.83020       -2.36050        4.56380
H          0.07040       -2.15210        4.61810
H          1.88140        0.02040        3.28430
H          0.98380        0.04600        4.70380
H         -0.42180        0.93440        2.76780
H         -1.07490       -0.44900        3.39020
H         -0.46370        1.86640        0.44810
H          0.81810        2.36920        2.73470
H          0.38530        3.67830        1.74830
H          3.06400        2.28990        1.70450
H          2.66610        3.66630        2.79830
H          3.81870        4.46340        0.73040
H          2.16720        5.17200        0.91930
H          3.03440        2.87990       -0.56980
H          2.52490        4.37290       -1.42350
H          0.61820        2.77300       -1.67680
H          0.22440        3.91680       -0.49250
H          0.34890       -2.02180       -1.18130
H         -1.96760       -0.91380       -0.65080
H         -1.78330       -1.45890       -2.26520
H         -1.39440        1.48140       -1.44970
H         -2.84290        0.77730       -2.20100
H         -1.33880        1.88360       -3.88700
H         -1.62290        0.14050       -4.20310
H          0.92950        1.32690       -2.96700
H          0.75270        0.62200       -4.55370
H          1.75780       -1.01230       -2.90290
H          0.20190       -1.54410       -3.51190
H          2.56660       -1.28390        2.06020
H          5.40930       -2.12410        2.38270
H          3.89200       -2.52590        3.37470
H          5.46880        0.31780       -3.34290
H          3.67910       -0.65040       -3.34780
H          4.59310       -0.21140       -4.74190
H          3.82890       -2.27660       -4.79810
H          4.01480       -3.68020       -6.30390
H          4.86960       -5.17070       -5.93500
H          5.66680       -3.75920       -6.81780
H          7.41810       -4.33410       -4.41790
H          8.95070       -3.87450       -2.88170
H          8.44510       -3.28980       -1.25200
H          9.09440       -2.16200       -2.56840
H          8.62570       -0.68230       -1.19200
H          8.73660        0.76720        0.85390
H          9.04470        2.73940        1.29380
H          9.48140        3.00980        3.01730
H          8.72600        4.32220        2.04590
H          7.76090        4.29990        4.39210
H          6.09580        4.59490        6.54830
H          5.36210        2.97530        6.78120
H          4.39450        4.22840        5.99880
H          4.25360        2.09860        4.89700
H          3.94260        0.35830        3.85750
H          5.59900       -0.17920        3.44520
H          4.43490        0.78380        2.15890
