80

P          1.01270        0.05020       -0.08550
C          0.27590        0.60570        1.71610
C          0.66160        2.03790        2.25650
C         -0.33200        3.20490        1.91440
C         -1.81360        2.89850        2.16220
C         -2.20950        1.46740        1.80610
C         -1.17050        0.48740        2.35930
C          0.83940        0.92300       -1.87520
C         -0.57810        1.24410       -2.51220
C         -1.30510        2.35100       -1.75570
C         -0.51250        3.64950       -1.76580
C          0.96350        3.40440       -1.36590
C          1.59000        2.25670       -2.14840
C          0.18630       -1.73260       -0.28220
C          0.25300       -2.94430        0.71580
C         -0.82720       -2.98920        1.81830
C         -2.26450       -2.85430        1.25690
C         -2.39040       -1.72240        0.24080
C         -1.29190       -1.79450       -0.80650
Ni         3.47270        0.05020       -0.08550
Br         3.57420        2.50510        0.37980
C          3.25750       -1.98060        0.04140
C          3.17770       -2.73820       -1.05340
C          5.62270        0.05020       -0.08550
N          6.49090        1.09840       -0.35440
C          6.28050        2.43180       -0.92210
C          7.74210        0.62240       -0.19160
C          9.04560        1.36650       -0.39240
C          7.67610       -0.70440        0.17280
C          8.86510       -1.60800        0.42640
N          6.37160       -1.06740        0.20000
C          5.99840       -2.42880        0.59660
H          0.86230       -0.09880        2.34530
H          1.70050        2.30330        2.07680
H          0.63770        1.98620        3.37120
H         -0.30780        3.52460        0.89650
H         -0.05700        4.11620        2.49290
H         -2.45700        3.62270        1.60390
H         -2.01540        3.02580        3.24060
H         -2.35830        1.29310        0.74950
H         -3.21330        1.27620        2.23890
H         -1.57180       -0.50570        2.46160
H         -1.11570        0.71800        3.45240
H          1.30710        0.19140       -2.56350
H         -1.24320        0.41510       -2.70750
H         -0.45850        1.60540       -3.55960
H         -1.36420        2.03010       -0.73920
H         -2.33050        2.52810       -2.16110
H         -1.00740        4.38120       -1.08360
H         -0.55390        4.08030       -2.78730
H          1.08990        3.06420       -0.34940
H          1.51730        4.35770       -1.47740
H          2.66090        2.13440       -1.96830
H          1.53020        2.53920       -3.22490
H          0.74540       -2.06680       -1.18320
H          1.23140       -3.13050        1.16280
H          0.03080       -3.86310        0.10920
H         -0.57260       -2.23250        2.56560
H         -0.78950       -3.95610        2.37350
H         -2.99910       -2.71640        2.08340
H         -2.54750       -3.79130        0.71810
H         -2.31660       -0.76440        0.66140
H         -3.41080       -1.71440       -0.20300
H         -1.51510       -1.04030       -1.51130
H         -1.47320       -2.75590       -1.34720
H          3.23090       -2.43110        1.02580
H          3.21800       -2.27650       -2.03170
H          3.06860       -3.81400       -0.95910
H          5.30260        2.54450       -1.41150
H          6.94440        2.55330       -1.79650
H          6.53900        3.22450       -0.17560
H          8.90160        2.42560       -0.67490
H          9.62650        0.87180       -1.20380
H          9.64010        1.34200        0.53840
H          9.83150       -1.08530        0.30790
H          8.84490       -2.45660       -0.29040
H          8.81190       -1.99430        1.46310
H          6.85790       -3.06880        0.86800
H          5.53460       -2.94670       -0.24720
H          5.37580       -2.38320        1.52150
