87

P          0.95400        0.07490        0.04770
C          0.12590       -0.82460       -1.29970
C         -1.25700       -1.02350       -1.44850
C         -1.73740       -1.77800       -2.53170
C         -0.84720       -2.33710       -3.45910
C          0.51900       -2.12840       -3.32040
C          0.99880       -1.36690       -2.25780
C          0.63840       -1.21250        1.32140
C         -0.10840       -2.40570        1.13970
C         -0.44110       -3.21370        2.23190
C         -0.02810       -2.86780        3.51670
C          0.73310       -1.71780        3.71230
C          1.06190       -0.90020        2.62700
C          0.01020        1.61870        0.30540
C         -0.93720        2.11850       -0.61000
C         -1.53530        3.36880       -0.39740
C         -1.18860        4.13970        0.71570
C         -0.26760        3.65040        1.63910
C          0.31210        2.39370        1.44770
Ni         3.41400        0.07490        0.04770
Br         3.41400       -2.50850       -0.13730
C          3.41400        2.21940        0.20130
C          2.49420        3.08220       -0.20470
P          5.87400        0.07490        0.04770
C          6.85780       -1.58100        0.09270
C          6.51520       -2.41970       -1.17300
C          8.40200       -1.64810        0.20330
C          6.36980       -2.31330        1.37420
C          6.38640        1.08580       -1.51900
C          5.91450        2.54980       -1.51770
C          7.92030        1.18240       -1.68200
C          5.82150        0.44800       -2.80490
C          6.39780        1.00410        1.53950
C          5.48460        1.46450        2.49840
C          5.92120        2.18500        3.62680
C          7.29470        2.46000        3.86290
N          7.76210        3.21830        5.03160
C          6.86690        3.77080        6.03850
C          9.17510        3.51170        5.29330
C          8.19860        1.95970        2.89560
C          7.75330        1.25800        1.77170
H         -1.95540       -0.61290       -0.73050
H         -2.79760       -1.94250       -2.65540
H         -1.21130       -2.93290       -4.28670
H          1.22060       -2.55910       -4.03080
H          2.06780       -1.21780       -2.17870
H         -0.49170       -2.72880        0.19060
H         -1.04350       -4.10120        2.08390
H         -0.30530       -3.48610        4.36130
H          1.04910       -1.44430        4.71070
H          1.62520        0.00060        2.82110
H         -1.19940        1.57770       -1.50330
H         -2.25030        3.75390       -1.11220
H         -1.62590        5.12050        0.85870
H          0.01970        4.25520        2.49180
H          1.05320        2.06240        2.16040
H          4.33240        2.70760        0.48300
H          1.65890        2.75730       -0.77560
H          2.66220        4.15080       -0.15230
H          7.16230       -2.13970       -2.02370
H          5.49100       -2.29240       -1.54790
H          6.69580       -3.50480       -1.01530
H          8.95190       -1.29700       -0.67620
H          8.70370       -2.72160        0.27060
H          8.79610       -1.18400        1.11890
H          5.28880       -2.28070        1.54610
H          6.80050       -1.84120        2.27960
H          6.67270       -3.38520        1.37030
H          6.25530        3.08500       -0.60580
H          4.83070        2.62920       -1.68700
H          6.33300        3.10300       -2.38810
H          8.40590        1.69080       -0.83280
H          8.19660        1.78540       -2.57360
H          8.36880        0.20730       -1.88200
H          4.71620        0.37440       -2.75360
H          6.23180       -0.54700       -3.00980
H          6.09390        1.05850       -3.69490
H          4.43040        1.27290        2.38430
H          5.13810        2.50760        4.28830
H          5.80120        3.57170        5.88730
H          6.98420        4.87550        6.07380
H          7.13270        3.36070        7.03780
H          9.89610        3.11690        4.57180
H          9.46300        3.09810        6.28620
H          9.32530        4.61420        5.32240
H          9.25900        2.07510        2.96050
H          8.51160        0.91310        1.10000
