64

P          1.02860        0.00940        0.09540
C          0.25230        0.37730       -1.49370
C         -1.11380        0.31880       -1.77930
C         -1.56190        0.59940       -3.08230
C         -0.64790        0.94360       -4.09560
C          0.71000        1.01230       -3.80910
C          1.15460        0.73680       -2.51760
C          0.68190       -1.79630       -0.01550
C          0.37850       -2.52020       -1.19260
C          0.06300       -3.88570       -1.13100
C          0.01990       -4.54940        0.09650
C          0.31970       -3.85780        1.26450
C          0.65950       -2.50730        1.20550
C          0.31440        1.18390        1.29140
C          0.09560        0.75830        2.62350
C         -0.37200        1.64200        3.59640
C         -0.63660        2.96310        3.26110
C         -0.42740        3.40640        1.94900
C          0.04890        2.52420        0.96260
Ni         3.48860        0.00940        0.09540
Br         3.48860       -1.74020       -1.81430
C          3.48860        1.46180        1.68060
C          4.44300        2.22580        2.22620
C          5.63860        0.00940        0.09540
N          6.37030       -0.04710        1.17210
C          5.90640       -0.23860        2.55380
C          6.28170       -1.60410        3.14560
C          7.77920       -0.13110        0.84850
C          7.81620       -0.35850       -0.66130
N          6.44800       -0.15250       -1.06150
C          6.04090        0.07710       -2.44350
C          6.94090        1.10220       -3.16020
H         -1.82530        0.04480       -1.00730
H         -2.61680        0.55580       -3.32240
H         -0.99120        1.15290       -5.10170
H          1.42530        1.27220       -4.58070
H          2.21900        0.79630       -2.32100
H          0.38710       -2.05600       -2.16550
H         -0.16000       -4.43450       -2.03500
H         -0.24230       -5.59840        0.14880
H          0.28000       -4.36320        2.22320
H          0.88470       -2.03100        2.13790
H          0.30580       -0.23670        2.94610
H         -0.52290        1.29680        4.61300
H         -0.99440        3.64830        4.02010
H         -0.63220        4.43710        1.70020
H          0.21600        2.88230       -0.04240
H          2.53070        1.66110        2.10730
H          5.47620        2.22200        1.92330
H          4.15890        2.90020        3.03480
H          4.81060       -0.26430        2.62230
H          6.33990        0.54650        3.20890
H          5.79490       -2.42470        2.57540
H          5.90380       -1.65170        4.19220
H          7.37440       -1.77360        3.18670
H          8.30720       -0.96980        1.34450
H          8.24780        0.83580        1.13700
H          8.09970       -1.39770       -0.93270
H          8.52600        0.37100       -1.10350
H          5.00400        0.48260       -2.46690
H          6.09280       -0.86750       -3.01180
H          6.94660        2.08580       -2.64230
H          6.58600        1.25630       -4.20190
H          7.98540        0.73010       -3.23760
