49

P          1.02040       -0.08880       -0.04110
F         -0.59980       -0.12100        0.37900
F          0.99620        1.58430       -0.08370
F          0.73560       -0.99930       -1.41540
Pd         3.48040       -0.08880       -0.04110
Br         3.45300       -0.92470       -2.40160
C          3.52530        0.19060        2.01430
C          2.93050        1.20740        2.62920
P          5.94040       -0.08880       -0.04110
C          7.04610        0.48140        1.27560
C          7.87490       -0.35660        2.04560
C          8.58950        0.19290        3.13130
C          8.48180        1.54490        3.44860
C          7.65790        2.38040        2.68230
C          6.93760        1.83900        1.61360
C          6.41680       -1.78480       -0.40580
C          7.17810       -2.08930       -1.54430
C          7.60930       -3.40070       -1.77090
C          7.27520       -4.41440       -0.86890
C          6.50940       -4.11910        0.26190
C          6.08320       -2.80730        0.49510
C          6.21260        1.12360       -1.38740
C          7.50180        1.49190       -1.88460
O          8.62830        0.96320       -1.34800
C          9.91460        1.35490       -1.67310
C          7.57300        2.46310       -2.91960
C          6.43220        3.05410       -3.44040
C          5.18220        2.72250       -2.92380
C          5.08370        1.77940       -1.90460
H          4.04930       -0.55440        2.60660
H          2.39360        1.95790        2.06720
H          2.97900        1.27780        3.71260
H          7.96520       -1.40550        1.84630
H          9.21950       -0.43930        3.74060
H          9.02130        1.97020        4.28570
H          7.55760        3.42710        2.92370
H          6.28210        2.49600        1.05450
H          7.46200       -1.31600       -2.24370
H          8.21110       -3.62910       -2.64080
H          7.61580       -5.42770       -1.04240
H          6.25610       -4.90390        0.96310
H          5.50630       -2.58680        1.38460
H         10.64810        0.81160       -1.04260
H         10.04650        2.44550       -1.48780
H         10.12950        1.13580       -2.73880
H          8.52410        2.77640       -3.33460
H          6.50350        3.79470       -4.22820
H          4.29380        3.19780       -3.31300
H          4.09720        1.56600       -1.51400
