36

P          1.06290       -0.05300        0.05680
F         -0.60520        0.08160        0.09340
F          1.04830        0.10790       -1.60940
F          0.96530       -1.55060        0.79770
Pd         3.52290       -0.05300        0.05680
Br         3.48050       -2.47150       -0.47650
C          3.40600        1.95240        0.57090
C          3.33090        2.31550        1.84930
P          5.98290       -0.05300        0.05680
C          7.18940       -1.46540        0.13550
C          6.89020       -2.26880        1.42150
C          7.04830       -2.43370       -1.05900
C          6.56440        0.77870       -1.50150
C          6.02770        2.20210       -1.62870
C          8.10900        0.85880       -1.59210
C          6.35180        0.96570        1.52200
H          3.38060        2.71770       -0.18340
H          3.34900        1.55730        2.62450
H          3.26560        3.36380        2.12100
H          8.23290       -1.10720        0.21350
H          5.84530       -2.63600        1.42870
H          7.04580       -1.64800        2.32750
H          7.56280       -3.15080        1.50330
H          6.03890       -2.87020       -1.11140
H          7.75690       -3.27840       -0.94740
H          7.25120       -1.93670       -2.02800
H          6.21140        0.19100       -2.38070
H          6.36620        2.82490       -0.77560
H          4.92420        2.16990       -1.68460
H          6.39070        2.66620       -2.56880
H          8.53540        1.38550       -0.71040
H          8.42810        1.38870       -2.51440
H          8.58720       -0.13670       -1.67370
H          5.93560        0.45280        2.41740
H          5.92160        1.97650        1.45010
H          7.44980        1.05110        1.64900
