61

P          0.94620       -0.05020        0.06770
C          0.00150       -0.37840        1.60990
C         -0.38950       -1.69760        1.93290
C         -0.95830       -2.00100        3.16710
C         -1.12760       -1.00880        4.13030
C         -1.71360       -1.35260        5.47030
C         -0.71970        0.29890        3.84080
C         -0.15100        0.61230        2.60290
C          0.54800        1.70340       -0.15940
C          1.55040        2.67630       -0.27440
C          1.21140        4.03890       -0.31220
C         -0.13230        4.44350       -0.22510
C         -0.50550        5.89940       -0.17620
C         -1.13500        3.47120       -0.14710
C         -0.80010        2.11530       -0.11800
C          0.30140       -1.42570       -0.92220
C         -1.09330       -1.51230       -1.10830
C         -1.67800       -2.67310       -1.61250
C         -0.88090       -3.77660       -1.93870
C         -1.51870       -5.07200       -2.36050
C          0.51670       -3.67590       -1.81280
C          1.10860       -2.50390       -1.30710
Pd         3.40620       -0.05020        0.06770
Br         3.40620        0.33300       -2.49380
C          3.40620       -0.36840        2.19400
C          4.25570       -0.76090        3.15970
N          5.50620       -0.05020        0.06770
C          6.18270       -0.37410       -1.08300
C          7.57720       -0.48360       -1.11110
C          8.31190       -0.19380        0.03110
Cl        10.06080       -0.32320        0.02470
C          7.64290        0.21420        1.17560
C          6.24810        0.26970        1.17270
H         -0.23030       -2.52340        1.25970
H         -1.23160       -3.03090        3.37600
H         -1.98300       -2.43130        5.52890
H         -2.63100       -0.75490        5.64000
H         -0.97740       -1.13940        6.27370
H         -0.81820        1.07570        4.59740
H          0.19620        1.62370        2.44370
H          2.59150        2.38840       -0.30180
H          1.99950        4.77800       -0.37690
H          0.39100        6.55360       -0.21780
H         -1.03170        6.10800        0.78160
H         -1.18110        6.16150       -1.01640
H         -2.17750        3.76290       -0.07550
H         -1.59630        1.39420       -0.01480
H         -1.74570       -0.71140       -0.79390
H         -2.75840       -2.72790       -1.69360
H         -2.62920       -5.00180       -2.37020
H         -1.24770       -5.86260       -1.62590
H         -1.17040       -5.37670       -3.36660
H          1.14030       -4.52740       -2.05540
H          2.17680       -2.47320       -1.14260
H          2.41320       -0.21520        2.58310
H          5.28550       -1.05270        3.03790
H          3.87640       -0.82470        4.17790
H          5.67520       -0.66460       -1.97820
H          8.07800       -0.80900       -2.01430
H          8.19420        0.49410        2.06460
H          5.79100        0.67760        2.04660
