105

P          1.05430        0.08400        0.00000
C          0.33940       -1.62170       -0.89690
C         -0.45120       -1.62480       -2.12880
C         -0.78360       -0.45130       -2.87290
C         -0.94680       -2.76550       -2.80730
C         -0.70790       -4.03210       -2.36170
C         -1.21970       -5.25240       -3.10530
C          0.04500       -4.15610       -1.22430
C          0.57580       -3.03650       -0.50370
C          1.38670       -3.54090        0.63300
C          0.42140       -0.36360        1.83600
C          1.01180        0.23760        3.05220
C          2.38880        0.85360        3.22540
C          0.29210        0.33180        4.27420
C         -0.97180       -0.18960        4.43640
C         -1.74940       -0.03090        5.73000
C         -1.50920       -0.89640        3.38920
C         -0.87290       -1.01150        2.12290
C         -1.67030       -1.91700        1.21810
C          0.12510        1.86570       -0.57400
C         -0.03090        2.83420        0.52230
C          0.77520        2.80140        1.74210
C         -0.70530        4.06410        0.48930
C         -1.23850        4.56520       -0.64750
C         -1.96460        5.89770       -0.62350
C         -0.97590        3.87430       -1.80820
C         -0.26840        2.61570       -1.85810
C          0.06220        2.35800       -3.35470
Pd         3.51430        0.08400        0.00000
Br         3.48040       -1.75000        1.58720
C          3.48130        1.69540       -1.33590
C          2.69600        2.72780       -1.45590
C          5.66430        0.08400        0.00000
N          6.49890        1.22800       -0.05400
C          6.29220        2.71510        0.06160
C          5.82970        3.44160       -1.18810
C          5.52280        3.10720        1.32470
C          7.77520        0.74630       -0.03050
C          7.74740       -0.60470       -0.00510
C          8.92820       -1.37260       -0.01300
C         10.16310       -0.70760       -0.01510
C         10.20650        0.69250       -0.01940
C          9.01900        1.43440       -0.03180
N          6.46560       -1.02710        0.01190
C          6.12830       -2.42620       -0.19140
C          6.15810       -3.15480        1.10140
C          6.27790       -2.45920        2.32340
C          6.18410       -3.13710        3.52210
C          6.01940       -4.52080        3.51980
C          5.94610       -5.22410        2.30980
C          6.00400       -4.54020        1.09780
H         -0.27690        0.28700       -2.33460
H         -1.87930       -0.27940       -2.92800
H         -0.35290       -0.53240       -3.90270
H         -1.51670       -2.66460       -3.73050
H         -1.79850       -4.98520       -4.01750
H         -1.88330       -5.85670       -2.45080
H         -0.37170       -5.89550       -3.42860
H          0.23540       -5.18130       -0.91930
H          1.26490       -4.62750        0.84470
H          1.12170       -3.04650        1.58340
H          2.42720       -3.54090        0.26910
H          3.00930        0.81340        2.31840
H          2.91730        0.31090        4.03610
H          2.32350        1.91000        3.58130
H          0.72040        0.85320        5.12720
H         -1.20460        0.57880        6.48330
H         -1.96570       -1.02340        6.17690
H         -2.72200        0.47950        5.53900
H         -2.47370       -1.35840        3.58280
H         -2.69210       -2.13410        1.59930
H         -1.20500       -2.92440        1.29980
H         -1.83150       -1.55380        0.20070
H          1.63550        2.20160        1.48230
H          0.18050        2.66640        2.66440
H          1.33130        3.76800        1.85640
H         -0.75630        4.69410        1.37690
H         -2.00750        6.32900        0.40390
H         -3.01230        5.76500       -0.96210
H         -1.46480        6.65050       -1.26980
H         -1.30890        4.39290       -2.70280
H         -0.18020        3.22770       -4.01180
H         -0.54810        1.64450       -3.91010
H          1.14610        2.23390       -3.52470
H          4.31410        1.64130       -2.02160
H          2.05440        3.00780       -0.66790
H          2.83400        3.48540       -2.22330
H          7.26110        3.21320        0.19450
H          4.78570        3.61670       -1.10160
H          6.17450        2.94420       -2.12030
H          6.10630        4.51180       -1.19990
H          4.52280        2.63210        1.33910
H          5.39810        4.21270        1.36460
H          6.09310        2.79820        2.22760
H          8.91500       -2.45270       -0.00180
H         11.08740       -1.27090       -0.00970
H         11.16180        1.20480       -0.01840
H          9.13480        2.50570       -0.04940
H          6.87580       -2.87520       -0.88730
H          5.16190       -2.52560       -0.73220
H          6.37360       -1.38000        2.36490
H          6.22270       -2.57200        4.44280
H          5.94450       -5.04150        4.45880
H          5.82590       -6.29610        2.30790
H          5.92220       -5.07860        0.15860
