61

P          0.93450        0.03180       -0.06850
C          0.00670       -0.48910        1.41900
C         -0.35010       -1.84380        1.58750
C         -0.88410       -2.31440        2.79090
C         -1.23860       -3.76460        2.94150
C         -1.05000       -1.42900        3.86190
C         -0.67560       -0.09090        3.72880
C         -0.14060        0.37620        2.52310
C          0.49040        1.78810       -0.12670
C          1.46900        2.79190       -0.14790
C          1.08880        4.14880       -0.10070
C          2.11370        5.23860       -0.09390
C         -0.27000        4.49150       -0.03720
C         -1.24480        3.49560       -0.02830
C         -0.87330        2.14950       -0.06940
C          0.30200       -1.19760       -1.24210
C         -1.09510       -1.29830       -1.41680
C         -1.66070       -2.34880       -2.15050
C         -3.15520       -2.48690       -2.27500
C         -0.81820       -3.30040       -2.73450
C          0.57090       -3.19670       -2.58720
C          1.13320       -2.14840       -1.84090
Pd         3.39450        0.03180       -0.06850
Br         3.39450        0.75240       -2.55620
C          3.39450       -0.56630        1.99660
C          4.29580       -1.01850        2.88410
N          5.49450        0.03180       -0.06850
C          6.27240       -0.32950       -1.16420
Cl         5.66440       -1.12960       -2.60780
C          7.66970       -0.34630       -1.08830
C          8.30750        0.04600        0.07280
C          7.54570        0.43850        1.16090
C          6.15110        0.41120        1.07080
H         -0.18070       -2.56180        0.79940
H         -1.03270       -4.33360        2.00930
H         -2.31690       -3.86120        3.17620
H         -0.63820       -4.21640        3.76070
H         -1.44280       -1.78380        4.80790
H         -0.77180        0.58090        4.57290
H          0.18950        1.40510        2.47500
H          2.51590        2.52050       -0.17530
H          3.14160        4.82960       -0.16200
H          2.02590        5.81780        0.85070
H          1.94030        5.92140       -0.95260
H         -0.57600        5.52890        0.01080
H         -2.29360        3.76200        0.03220
H         -1.64590        1.40680       -0.03010
H         -1.75390       -0.59400       -0.93260
H         -3.69070       -1.65340       -1.76910
H         -3.48240       -3.43700       -1.80030
H         -3.45490       -2.49790       -3.34330
H         -1.24220       -4.13160       -3.28700
H          1.20630       -3.95240       -3.02730
H          2.20460       -2.11630       -1.69280
H          2.40000       -0.53130        2.40910
H          5.34120       -1.19680        2.70040
H          3.95190       -1.25040        3.89000
H          8.26070       -0.70410       -1.92270
H          9.38810        0.03180        0.13210
H          8.03120        0.76650        2.07010
H          5.60820        0.79410        1.91620
