87

P          0.99350        0.01090        0.09920
C         -0.26690        1.48530        0.75480
C         -1.73290        1.61100        0.80770
C         -2.61600        0.67180        0.13670
C         -2.40740        2.71370        1.45430
C         -1.69700        3.78980        2.03580
C         -2.22430        4.99310        2.76580
C         -0.36700        3.77030        1.90030
C          0.29420        2.72770        1.29780
C          1.63290        3.00910        1.19420
C          0.47110       -0.11270       -1.77100
C          1.17370        0.71130       -2.73250
C          2.43700        1.45510       -2.46740
C          0.77280        0.83320       -4.07240
C         -0.29700        0.13500       -4.57860
C         -0.70430        0.29610       -6.02790
C         -0.96160       -0.74420       -3.74340
C         -0.62230       -0.92020       -2.36930
C         -1.49540       -2.01780       -1.73720
C          0.60250       -1.34640        1.39630
C          0.62940       -2.76170        1.09130
C          1.09330       -3.38120       -0.17660
C          0.23570       -3.73360        2.02530
C         -0.17680       -3.39870        3.29560
C         -0.64460       -4.46480        4.25090
C         -0.11550       -2.07170        3.67940
C          0.28620       -1.05130        2.78440
C          0.42720        0.29380        3.43890
Pd         3.45350        0.01090        0.09920
Br         3.38670       -1.80850       -1.58480
C          3.89420        2.03580        0.49240
C          4.41560        2.51080        1.65110
N          5.55350        0.01090        0.09920
C          6.36650       -1.03250       -0.24460
N          7.69210       -0.68960       -0.21640
C          8.88140       -1.45510       -0.53720
C          8.79700       -2.79990       -0.92880
C          9.95260       -3.51300       -1.27070
C         11.20380       -2.89620       -1.22650
C         11.31200       -1.56660       -0.83020
C         10.16750       -0.85270       -0.48560
C          7.71530        0.59770        0.13790
C          6.45400        1.01630        0.32620
H         -1.95100        0.04170       -0.39390
H         -3.21150        1.22980       -0.61980
H         -3.28300        0.14750        0.85180
H         -3.49090        2.75720        1.48750
H         -3.31850        5.01480        2.89430
H         -1.89150        5.91940        2.23840
H         -1.74210        5.03580        3.77360
H          0.17700        4.61930        2.29490
H          2.01310        4.01550        1.48110
H          1.73820        2.94430        0.09480
H          2.04950        2.28050        1.89580
H          2.87220        1.14940       -1.53730
H          2.29900        2.55160       -2.53030
H          3.19030        1.14310       -3.23060
H          1.32800        1.47840       -4.74720
H         -0.05950        1.03040       -6.55940
H         -1.75190        0.66040       -6.09930
H         -0.62560       -0.67270       -6.56410
H         -1.77070       -1.30470       -4.20090
H         -2.18570       -2.48250       -2.47520
H         -2.16460       -1.81850       -0.89710
H         -0.90350       -2.86290       -1.45410
H          1.16010       -2.63340       -0.95510
H          0.40340       -4.17210       -0.53300
H          2.06060       -3.89780        0.01700
H          0.23930       -4.78340        1.74740
H         -0.63170       -5.47270        3.78000
H         -1.68990       -4.25800        4.56720
H          0.01060       -4.49010        5.14450
H         -0.38350       -1.83390        4.70410
H          0.64250        0.16480        4.52580
H         -0.48670        0.91390        3.37850
H          1.36310        0.75940        3.11120
H          3.74020        2.76030       -0.29830
H          4.66710        1.86430        2.48410
H          4.62910        3.57520        1.73600
H          6.00470       -2.01350       -0.50960
H          7.84250       -3.30030       -0.98070
H          9.87400       -4.54570       -1.57840
H         12.09830       -3.44400       -1.50120
H         12.28040       -1.08030       -0.79440
H         10.31910        0.17410       -0.19370
H          8.57380        1.24470        0.23260
H          6.33500        2.05320        0.52840
