79

P          1.04270        0.08720       -0.02390
C          0.24550       -1.18240        1.04660
C         -0.02600       -2.45830        0.49370
C         -0.48760       -3.52320        1.26600
C         -0.77950       -4.84710        0.61670
C         -0.65110       -3.34730        2.64070
C         -0.34190       -2.11720        3.22720
C          0.10920       -1.04460        2.44300
C          0.48010        1.65840        0.68200
C          0.95310        2.12880        1.91810
C          0.38410        3.27550        2.50660
C          0.84360        3.77250        3.84440
C         -0.64930        3.95460        1.84590
C         -1.09840        3.50940        0.60460
C         -0.53470        2.37380        0.02340
C          0.28600       -0.46860       -1.57260
C         -1.12620       -0.52170       -1.62950
C         -1.78310       -1.16160       -2.68640
C         -3.28430       -1.28220       -2.69880
C         -1.01960       -1.74020       -3.70660
C          0.38010       -1.66690       -3.67120
C          1.03650       -1.03300       -2.60610
Pd         3.50270        0.08720       -0.02390
Br         3.46820        1.74970       -1.85320
C          3.63810       -1.34270        1.54020
C          4.78480       -1.92080        1.96610
C          5.65270        0.08720       -0.02390
N          6.35340       -0.35420       -1.01310
C          5.81980       -1.17860       -2.09840
C          6.10720       -0.57030       -3.46820
C          6.44130       -2.59590       -2.02600
C          7.76860       -0.19540       -0.75160
C          7.81380        0.74230        0.44470
N          6.48410        0.62650        0.99960
C          6.06600        1.25840        2.24530
C          6.88710        0.68500        3.41140
C          6.26020        2.78340        2.19290
H          0.14040       -2.66540       -0.55000
H         -0.57170       -4.82330       -0.47650
H         -1.85110       -5.09750        0.75360
H         -0.14900       -5.64180        1.06600
H         -0.99060       -4.17060        3.25720
H         -0.43310       -2.00300        4.29960
H          0.37330       -0.13750        2.95340
H          1.73580        1.58880        2.43550
H          1.67070        3.15310        4.24910
H         -0.00360        3.74110        4.56340
H          1.19600        4.82100        3.75030
H         -1.10970        4.82730        2.29390
H         -1.90050        4.03320        0.09940
H         -0.92590        2.04380       -0.92650
H         -1.71710       -0.12800       -0.80980
H         -3.75060       -0.75110       -1.84010
H         -3.57080       -2.35400       -2.62890
H         -3.69930       -0.85970       -3.63710
H         -1.51070       -2.26460       -4.51720
H          0.95670       -2.14110       -4.45290
H          2.11590       -1.04320       -2.55630
H          2.72980       -1.70220        1.98340
H          5.77210       -1.71680        1.57480
H          4.76840       -2.68860        2.73050
H          4.71860       -1.30020       -1.98420
H          7.19720       -0.41510       -3.61380
H          5.57620        0.39470       -3.56880
H          5.74410       -1.25830       -4.26440
H          7.54390       -2.56430       -2.17220
H          6.02610       -3.25780       -2.81510
H          6.23770       -3.06790       -1.03960
H          8.35460        0.19450       -1.60870
H          8.16540       -1.18650       -0.43540
H          7.93660        1.79050        0.08850
H          8.63820        0.46830        1.13310
H          4.98850        1.05830        2.42370
H          7.97100        0.89350        3.27460
H          6.75020       -0.41260        3.48150
H          6.57930        1.14550        4.37290
H          7.32610        3.05260        2.02810
H          5.94190        3.24040        3.15580
H          5.64700        3.22520        1.38050
