59

P          1.06300        0.07040        0.03270
C          0.38760        0.80480       -1.48900
C         -0.95420        0.80110       -1.91180
C         -1.28470        1.24110       -3.20820
C         -0.28220        1.67210       -4.09370
C         -0.59420        2.06950       -5.51190
C          1.04510        1.68130       -3.67390
C          1.36950        1.25430       -2.38990
C          0.60870       -1.63910       -0.29220
C          1.03250       -2.28850       -1.46050
C          0.76370       -3.64490       -1.65190
C          0.05380       -4.36650       -0.68050
C         -0.20790       -5.83390       -0.85040
C         -0.41200       -3.70760        0.47090
C         -0.13270       -2.34820        0.65610
C          0.33660        1.06560        1.35720
C         -1.06250        1.07150        1.49070
C         -1.68220        1.64080        2.59920
C         -0.91330        2.20600        3.61900
C         -1.58320        2.75100        4.84850
C          0.48770        2.21760        3.49530
C          1.11160        1.64760        2.37010
Pd         3.52300        0.07040        0.03270
Br         3.52300        2.65730       -0.09460
C          3.52300       -2.07700        0.13840
C          4.48320       -2.93460       -0.22250
C          5.67300        0.07040        0.03270
N          6.48730       -0.91650        0.48110
H          6.25360       -1.80390        0.96880
C          7.74350       -0.48630        0.29930
Cl         9.17410       -1.39400        0.75310
C          7.69660        0.76250       -0.26070
Cl         9.06760        1.74070       -0.74660
N          6.40760        1.12810       -0.38310
H         -1.74890        0.41630       -1.30050
H         -2.31550        1.20780       -3.53480
H         -1.67850        1.98780       -5.73160
H         -0.04990        1.39670       -6.21170
H         -0.26430        3.11310       -5.69770
H          1.83920        1.98880       -4.34510
H          2.41650        1.21610       -2.12740
H          1.61380       -1.75340       -2.20630
H          1.13400       -4.13600       -2.54630
H          0.23820       -6.22200       -1.79120
H         -1.30020       -6.02490       -0.86840
H          0.24610       -6.38830       -0.00090
H         -0.96310       -4.25280        1.23090
H         -0.46370       -1.86480        1.56370
H         -1.69710        0.58270        0.77780
H         -2.76300        1.59900        2.67720
H         -2.68950        2.64590        4.79190
H         -1.33810        3.82390        4.97450
H         -1.23820        2.18530        5.74080
H          1.09420        2.63300        4.28980
H          2.19050        1.61090        2.32590
H          2.63840       -2.58890        0.45580
H          5.40230       -2.63900       -0.69810
H          4.31490       -4.00290       -0.12820
H          6.07050        2.02440       -0.79130
