71

P          0.97130        0.05180       -0.08060
C          0.11700       -1.49680       -0.90370
C         -1.43080       -1.53970       -0.89910
C          0.55690       -1.60630       -2.38020
C          0.59720       -2.83620       -0.28450
C          0.48230       -0.00960        1.86990
C          0.98960       -1.16000        2.79620
C          1.00870        1.20740        2.65270
C         -1.04780        0.01840        2.07320
C          0.21710        1.45270       -1.17460
C          0.12280        3.06810       -0.97140
C          1.43250        3.87460       -1.01750
C         -0.74060        3.62510       -2.12980
C         -0.57820        3.52140        0.31660
Pd         3.43130        0.05180       -0.08060
Br         3.43130       -2.11290        1.34150
C          3.43130        1.84870       -1.26110
C          4.37440        2.79360       -1.24190
N          5.53130        0.05180       -0.08060
C          6.32050        0.39160        0.88840
C          5.92500        1.04230        2.18790
C          6.85560        1.14180        3.23930
C          6.50190        1.72670        4.45930
C          5.21740        2.22630        4.64430
C          4.29070        2.15500        3.60620
C          4.63660        1.56210        2.37870
N          7.66900        0.17170        0.56540
C          7.73930       -0.51450       -0.69770
C          6.27820       -0.50580       -1.18440
H         -1.88390       -0.67850       -1.40710
H         -1.86400       -1.65890        0.09280
H         -1.77840       -2.45210       -1.42690
H          0.22430       -0.74850       -2.98980
H          0.12190       -2.51650       -2.85020
H          1.66520       -1.70880       -2.46370
H          0.26800       -2.98370        0.74450
H          1.68750       -2.96610       -0.38990
H          0.16580       -3.71180       -0.81600
H          2.04740       -1.02930        3.08280
H          0.76590       -2.18380        2.49870
H          0.51730       -1.09350        3.80230
H          2.08280        1.25040        2.55670
H          0.77730        1.14280        3.74440
H          0.57020        2.14600        2.42150
H         -1.49750       -0.96510        1.91360
H         -1.53410        0.81260        1.47440
H         -1.30860        0.21060        3.14080
H         -0.85410        1.18560       -1.18030
H          0.58290        1.28060       -2.20330
H          1.91170        3.80590       -2.01310
H          2.08650        3.59060       -0.16750
H          1.25430        4.96310       -0.88610
H         -0.28090        3.39530       -3.11320
H         -0.82850        4.73530       -2.05940
H         -1.76860        3.20900       -2.10140
H          0.11430        3.48270        1.13990
H         -1.53080        2.99190        0.50780
H         -0.78400        4.61470        0.29470
H          2.69970        1.86460       -2.04810
H          5.19910        2.77510       -0.54460
H          4.31750        3.59990       -1.97150
H          7.86500        0.77280        3.14830
H          7.22590        1.79170        5.25940
H          4.94170        2.67640        5.59020
H          3.30870        2.57550        3.77130
H          3.92600        1.52810        1.57610
H          8.49510        0.39240        1.13270
H          8.10780       -1.54450       -0.48550
H          8.40740        0.00570       -1.41300
H          5.94930       -1.55050       -1.37830
H          6.13790        0.12360       -2.08570
