93

P          0.93100        0.00160        0.07230
C          0.08430       -1.35720        0.90150
C         -1.30560       -1.47350        1.07850
C         -1.82210       -2.47850        1.90760
C         -0.96080       -3.37720        2.57110
C         -1.47190       -4.42130        3.52090
C          0.42380       -3.27090        2.36640
C          0.93460       -2.27860        1.54510
C          0.34370        1.25390        1.25120
C          0.65660        1.15260        2.62250
C          0.23300        2.13900        3.51980
C         -0.49370        3.25290        3.06620
C         -0.91810        4.33390        4.02060
C         -0.81390        3.35070        1.70460
C         -0.41300        2.35260        0.80520
C          0.32480       -0.19740       -1.62840
C         -0.52270       -1.23920       -2.06180
C         -1.11040       -1.18860       -3.32850
C         -0.85620       -0.11000       -4.19890
C         -1.53640       -0.02130       -5.53280
C          0.01510        0.90220       -3.78470
C          0.59730        0.85870       -2.51420
Pd         3.39100        0.00160        0.07230
Br         3.39100       -2.19100       -1.30630
C          3.39100        1.82170        1.21680
C          2.60790        2.87240        0.99680
P          5.85100        0.00160        0.07230
C          6.32030        1.00660       -1.51550
C          5.68350        2.41040       -1.44690
C          7.79750        1.24220       -1.91760
C          5.64270        0.32710       -2.72720
C          6.49400        1.13270        1.60520
C          5.94020        0.39820        2.86840
C          8.03910        1.12090        1.85460
C          6.27260        2.71610        1.71100
C          6.38230       -1.77580       -0.36890
C          7.87740       -2.35640       -0.32270
C          8.57450       -2.13250        1.01640
C          7.82790       -3.88520       -0.52590
C          8.81410       -1.79850       -1.40050
H         -1.97330       -0.74430        0.62190
H         -2.89800       -2.54510        2.06460
H         -2.57520       -4.38970        3.60990
H         -1.03960       -4.23980        4.53360
H         -1.16090       -5.43130        3.18730
H          1.10040       -3.94610        2.87910
H          2.01310       -2.19610        1.44720
H          1.23160        0.31660        2.99340
H          0.49000        2.04450        4.56710
H         -0.61390        4.10560        5.06450
H         -2.02250        4.44930        3.99790
H         -0.45060        5.30020        3.73030
H         -1.36840        4.20710        1.33710
H         -0.65500        2.45800       -0.24300
H         -0.78370       -2.06050       -1.41590
H         -1.78670       -1.97960       -3.62360
H         -2.21470       -0.88330       -5.70700
H         -0.77960        0.00490       -6.34430
H         -2.14530        0.90800       -5.58140
H          0.21740        1.74600       -4.43690
H          1.22690        1.68430       -2.20370
H          4.07810        1.90870        1.98480
H          1.95310        2.88670        0.13850
H          2.69190        3.76040        1.61600
H          6.22730        3.08380       -0.78760
H          4.61370        2.36320       -1.16770
H          5.74660        2.92540       -2.43130
H          8.43810        1.60130       -1.10080
H          7.86310        2.02170       -2.70720
H          8.21970        0.39930       -2.47380
H          4.54820        0.23100       -2.56350
H          6.07110       -0.66930       -2.93640
H          5.79550        0.91730       -3.65680
H          6.35050       -0.63890        2.89760
H          4.85010        0.24280        2.90140
H          6.25460        0.89480        3.81310
H          8.40450        0.23570        2.38560
H          8.35110        1.84570        2.64320
H          8.63030        1.40690        0.97330
H          5.35000        3.29660        1.58560
H          6.98430        3.27860        1.08360
H          6.55040        3.03400        2.74470
H          5.97710       -2.07470       -1.34370
H          5.85140       -2.37160        0.40530
H          7.96410       -2.45900        1.88400
H          8.82290       -1.09010        1.04090
H          9.57040       -2.62430        1.06060
H          7.24180       -4.37370        0.28210
H          8.85710       -4.31450       -0.48800
H          7.39010       -4.14550       -1.51170
H          9.12090       -0.77890       -1.12420
H          8.35500       -1.86810       -2.41050
H          9.78250       -2.34200       -1.42440
