71

P          0.97200        0.02250       -0.09330
C          0.02360        1.56180       -0.23210
C         -0.91380        1.85210       -1.23810
C         -1.38000        3.17780       -1.39670
C         -2.37090        3.54250       -2.45850
C         -0.88310        4.19890       -0.57160
C          0.01690        3.90320        0.44340
C          0.44360        2.59270        0.62970
C          0.83350       -0.73380       -1.71280
C          1.41200       -0.09600       -2.81420
C          1.34140       -0.67600       -4.09060
C          1.96750        0.00140       -5.27240
C          0.67760       -1.90090       -4.25160
C          0.09590       -2.53810       -3.15330
C          0.17340       -1.95880       -1.88100
C          0.32610       -0.72110        1.41060
C          1.15980       -1.02990        2.49180
C          0.61610       -1.54980        3.67970
C          1.49660       -1.87360        4.84850
C         -0.76870       -1.75570        3.77670
C         -1.60080       -1.44690        2.69880
C         -1.05650       -0.93240        1.52030
Pd         3.43200        0.02250       -0.09330
Br         3.43200       -2.52930        0.34990
C          3.43200        2.14080       -0.46130
C          4.45540        2.96810       -0.71040
N          5.53200        0.02250       -0.09330
C          6.27470        0.83180        0.57590
C          5.75410        1.70640        1.68840
C          4.45850        1.49070        2.22100
C          3.98610        2.22490        3.31270
C          4.80740        3.16440        3.91580
C          6.10210        3.37310        3.43840
C          6.58080        2.64250        2.33840
N          7.64210        0.55370        0.41260
C          7.78070       -0.63820       -0.37590
C          6.32960       -1.01490       -0.70720
H         -1.24420        1.07760       -1.91660
H         -2.72090        2.64940       -3.01450
H         -1.91070        4.25730       -3.17340
H         -3.24780        4.03020       -1.98170
H         -1.19090        5.22830       -0.71840
H          0.41880        4.69640        1.06400
H          1.19240        2.40090        1.39120
H          1.92250        0.84910       -2.67750
H          2.45100        0.95980       -4.98480
H          1.19110        0.21530       -6.03780
H          2.74220       -0.66130       -5.71270
H          0.61440       -2.36150       -5.23210
H         -0.41470       -3.48370       -3.28660
H         -0.27570       -2.46350       -1.03730
H          2.22220       -0.85160        2.41990
H          2.56400       -1.66130        4.62620
H          1.39650       -2.94990        5.10170
H          1.19250       -1.26280        5.72470
H         -1.20420       -2.14790        4.68860
H         -2.67020       -1.59680        2.77970
H         -1.71600       -0.68260        0.69790
H          2.49010        2.62480       -0.54830
H          5.48750        2.67880       -0.75050
H          4.25120        4.01590       -0.91140
H          3.80550        0.74570        1.82070
H          2.99000        2.03660        3.68640
H          4.43890        3.72260        4.76870
H          6.74190        4.09320        3.92990
H          7.59470        2.81650        2.00660
H          8.42330        1.02330        0.89080
H          8.24700       -1.43300        0.24370
H          8.38900       -0.44080       -1.28510
H          6.07170       -2.03050       -0.35700
H          6.17080       -0.94320       -1.80800
