65

P          1.27500       -0.00000        0.00000
N          0.24940        0.82580       -1.19880
C         -1.18290        0.73760       -0.99090
C         -1.47680       -0.19920        0.16270
C         -3.00630       -0.33240        0.28570
C         -0.81820       -1.60030       -0.16680
N          0.66020       -1.59180       -0.38470
N          0.57850        0.84460        1.36130
C         -0.85570        0.44240        1.46600
Pd         3.73500        0.00030       -0.00050
Br         3.73560       -1.42020        2.16520
C          3.73450        1.17960       -1.79820
C          3.25130        0.71570       -2.94750
C          5.88500        0.00060       -0.00090
N          6.66680       -1.11040        0.20390
C          6.15090       -2.50400        0.11910
C          5.46670       -2.67460       -1.26200
C          7.17230       -3.64030        0.25000
C          7.95810       -0.65340        0.15010
C          7.93800        0.69950       -0.06300
C          9.12270        1.45680       -0.12670
C         10.34890        0.79370       -0.01940
C         10.38390       -0.59540        0.14560
C          9.19390       -1.33390        0.23600
N          6.65910        1.12190       -0.19160
C          6.26940        2.55280       -0.20770
C          5.39850        2.94360        0.98350
C          5.80370        2.67250        2.30950
C          5.00840        3.07220        3.39580
C          3.81060        3.75520        3.17410
C          3.40500        4.04070        1.86930
C          4.19060        3.63820        0.78190
H          0.49880        0.46080       -2.14780
H         -1.66980        0.38860       -1.93210
H         -1.57310        1.75870       -0.78550
H         -3.43600       -0.73270       -0.66060
H         -3.47010        0.66490        0.45910
H         -3.28590       -1.01000        1.11560
H         -1.30580       -2.02170       -1.07710
H         -1.04460       -2.29850        0.66390
H          0.89220       -1.80400       -1.38270
H          0.65710        1.86850        1.16080
H         -1.44390        1.34820        1.74100
H         -0.97460       -0.27950        2.30030
H          4.07230        2.19190       -1.79790
H          2.84610       -0.28520       -3.02020
H          3.24260        1.36380       -3.82110
H          5.42990       -2.71330        0.90120
H          6.20930       -2.50880       -2.07780
H          4.64370       -1.94330       -1.40490
H          5.04000       -3.69200       -1.39030
H          7.89360       -3.63060       -0.59540
H          6.65230       -4.62040        0.19780
H          7.67370       -3.58960        1.23670
H          9.13710        2.52540       -0.27660
H         11.27090        1.35580       -0.08120
H         11.34000       -1.09980        0.20920
H          9.31460       -2.38760        0.38230
H          5.86910        2.86010       -1.17860
H          7.16020        3.19510       -0.09860
H          6.73350        2.15820        2.50870
H          5.32150        2.86380        4.41310
H          3.19880        4.07300        4.01180
H          2.48230        4.58220        1.70010
H          3.86190        3.88950       -0.21510
