50

P          0.94310       -0.08120       -0.01310
O          0.56790       -1.32060       -1.12930
C          1.00830       -0.94410       -2.41390
C          0.55930       -1.99650       -3.41580
O          0.62860       -0.36890        1.64710
C         -0.76570       -0.57470        1.80530
C         -1.11550       -0.72650        3.27660
C         -0.11770        1.36230       -0.35080
C         -1.09980        1.45080       -1.34800
C         -1.59720        2.71250       -1.71570
C         -1.12530        3.87770       -1.09390
C         -0.19070        3.78580       -0.06540
C          0.29560        2.53810        0.31580
Pd         3.40310       -0.08120       -0.01310
Br         3.16250       -2.40730        0.86270
C          3.35390        1.89580       -0.89060
C          2.38630        2.40110       -1.65370
N          5.50310       -0.08120       -0.01310
C          6.26040        1.00090       -0.39240
C          7.66110        0.99910       -0.45250
O          8.36870        2.09740       -0.83810
C          7.83470        3.34440       -1.14590
C          8.32880       -0.17260       -0.12030
C          7.59580       -1.28270        0.27950
C          6.19250       -1.21670        0.33990
H          2.11580       -0.85790       -2.44820
H          0.54260       -0.00070       -2.75430
H          1.01860       -2.97620       -3.17160
H          0.86450       -1.69520       -4.44060
H         -0.54820       -2.09600       -3.39230
H         -1.09540       -1.48870        1.26390
H         -1.36070        0.30290        1.47340
H         -0.59940       -1.60680        3.70840
H         -2.21490       -0.86380        3.37930
H         -0.82540        0.18980        3.83460
H         -1.42690        0.57590       -1.88860
H         -2.31310        2.79920       -2.52090
H         -1.46610        4.85180       -1.41850
H          0.19940        4.68380        0.40300
H          1.08190        2.50140        1.06400
H          4.12740        2.61580       -0.86310
H          1.55090        1.82900       -1.96870
H          2.47760        3.40030       -2.07140
H          5.85500        1.90150       -0.67410
H          8.65050        4.04430       -1.41570
H          7.29180        3.76150       -0.26760
H          7.14110        3.26750       -2.01080
H          9.40990       -0.21390       -0.17400
H          8.10960       -2.19870        0.53610
H          5.69640       -2.11310        0.63850
