84

P          1.04510        0.02130       -0.08670
C         -0.05280        1.62230        0.06500
C         -1.61130        1.76900       -0.04840
C         -2.35460        1.44390        1.26680
C         -1.93670        2.37660        2.36760
C         -0.42790        2.22350        2.57620
C          0.32150        2.53150        1.27300
C          0.79770       -0.36110       -2.05650
C          1.49740       -1.59150       -2.74470
C          0.76730       -2.95890       -2.57300
C         -0.57560       -2.92960       -3.33440
C         -1.36710       -1.77820       -2.79150
C         -0.61690       -0.40190       -2.78370
C          0.23170       -1.42060        0.98780
C         -1.18800       -1.84690        0.87540
C         -2.30600       -1.28770        0.05170
C         -1.71250       -2.93170        1.57470
C         -0.96090       -3.68640        2.40730
C         -1.58540       -4.92660        3.01540
C          0.35060       -3.30970        2.64480
C          0.95200       -2.18270        2.01250
C          2.34250       -1.90590        2.55570
Pd         3.50510        0.02130       -0.08670
Br         3.52870       -2.48130       -0.42850
C          3.45160        2.09430        0.13310
C          3.91440        2.70620        1.22630
P          5.96510        0.02130       -0.08670
C          7.07920        1.46270        0.04370
C          6.27190       -0.71960        1.54430
C          6.78710       -0.99300       -1.49530
C          6.42210       -0.40870       -2.88610
C          8.32550       -0.94030       -1.36790
C          6.42090       -2.48190       -1.53040
H          0.34160        2.16890       -0.81890
H         -2.09700        1.32120       -0.91110
H         -1.84110        2.83270       -0.27040
H         -2.09230        0.46450        1.68320
H         -3.45260        1.51390        1.10010
H         -2.48640        2.10850        3.29660
H         -2.20910        3.41530        2.08160
H         -0.17930        1.19350        2.91190
H         -0.12150        2.94220        3.36370
H          1.38930        2.51870        1.47560
H          0.05320        3.58030        1.00160
H          1.28870        0.53400       -2.48760
H          2.55750       -1.61560       -2.53200
H          1.49970       -1.42970       -3.84840
H          0.60680       -3.17560       -1.49050
H          1.34830       -3.79810       -3.00460
H         -1.14910       -3.88080       -3.16360
H         -0.45270       -2.81240       -4.42820
H         -1.44970       -2.19380       -1.83190
H         -2.37810       -1.70470       -3.25900
H         -1.25920        0.42920       -2.50100
H         -0.46330       -0.20220       -3.86860
H         -1.85020       -0.59400       -0.60270
H         -3.16750       -0.87230        0.60130
H         -2.86730       -2.07570       -0.49540
H         -2.75240       -3.22880        1.43150
H         -2.64190       -5.06900        2.67830
H         -1.58650       -4.87950        4.11990
H         -1.02730       -5.82300        2.66730
H          0.88620       -3.91540        3.37190
H          2.62590       -2.62020        3.36270
H          2.41080       -0.88970        2.96870
H          3.16710       -2.02660        1.89440
H          2.84810        2.70930       -0.52770
H          4.29380        2.14010        2.07120
H          3.71200        3.76860        1.36020
H          6.71540        2.10180        0.87630
H          6.97360        2.06140       -0.88810
H          8.13570        1.22180        0.24230
H          5.86810       -0.06020        2.33940
H          7.37060       -0.81360        1.69030
H          5.81640       -1.72510        1.61050
H          6.86210        0.59600       -3.05440
H          5.32070       -0.34370       -3.01910
H          6.80800       -1.06920       -3.69950
H          8.71030        0.09000       -1.49930
H          8.81270       -1.52680       -2.17810
H          8.65670       -1.34470       -0.39040
H          5.43390       -2.62920       -1.97940
H          6.54630       -2.95680       -0.53530
H          7.05820       -3.03230       -2.25620
