94

P          1.04880        0.02490        0.08370
C          0.05720        0.37370       -1.43900
C         -1.02670       -0.38730       -1.92790
C         -1.50490       -0.18280       -3.23470
C         -0.90800        0.77020       -4.06960
C          0.10900        1.57670       -3.57500
C          0.55700        1.39800       -2.26870
C          0.60500       -1.75990        0.32530
C          0.44530       -2.68140       -0.73650
C         -0.04140       -3.98020       -0.49460
C         -0.33820       -4.39660        0.80470
C         -0.15870       -3.51830        1.86160
C          0.28770       -2.22290        1.61950
C          0.23670        1.26030        1.22910
C          0.43850        1.21760        2.64850
O          1.21860        0.24610        3.19420
C          1.50030        0.05080        4.53440
C         -0.09410        2.24040        3.46430
C         -0.83440        3.27890        2.91220
C         -1.08180        3.30390        1.54730
C         -0.56110        2.31270        0.71740
Pd         3.50880        0.02490        0.08370
Br         3.57600        0.91910       -2.26450
C          2.89540        2.06040        0.75070
C          2.72150        2.53870        2.03320
C          5.65880        0.02490        0.08370
N          6.38320       -1.09860        0.06680
C          6.01610       -2.53490        0.01680
C          4.96870       -3.03660       -0.82550
C          4.20370       -2.18540       -1.72580
C          4.66530       -4.39910       -0.94500
C          5.39660       -5.36580       -0.29030
C          5.11550       -6.81990       -0.56450
C          6.42780       -4.96240        0.55280
C          6.75180       -3.58800        0.72780
C          7.92310       -3.32950        1.65250
C          7.80190       -0.75850        0.12300
C          7.85500        0.68210       -0.29300
N          6.56420        1.16140        0.07590
C          6.39030        2.43440        0.69430
C          6.99580        3.63540        0.23260
C          8.06800        3.73450       -0.87490
C          6.67530        4.88480        0.75280
C          5.73400        4.99390        1.75800
C          5.27640        6.35800        2.20640
C          5.24250        3.82750        2.35450
C          5.60620        2.53920        1.86570
C          5.18760        1.27200        2.64880
H         -1.48400       -1.16150       -1.33420
H         -2.30750       -0.79280       -3.62210
H         -1.23070        0.88970       -5.09370
H          0.57890        2.32290       -4.20730
H          1.34230        2.04310       -1.91810
H          0.64040       -2.39410       -1.75920
H         -0.20800       -4.66600       -1.31400
H         -0.71730       -5.39240        0.99960
H         -0.38800       -3.82650        2.87610
H          0.34930       -1.61160        2.47620
H          2.09980       -0.87710        4.64340
H          0.55930       -0.07550        5.11080
H          2.08920        0.89830        4.94350
H          0.09530        2.26270        4.52880
H         -1.20790        4.07300        3.54490
H         -1.66210        4.11240        1.12190
H         -0.77900        2.42160       -0.32780
H          2.48190        2.76000        0.04220
H          2.92090        2.00150        2.96300
H          2.30920        3.52110        2.27180
H          4.75590       -1.26630       -1.82630
H          3.16210       -2.09940       -1.35460
H          4.21170       -2.61660       -2.75090
H          3.87500       -4.71450       -1.62650
H          4.26980       -6.95210       -1.28020
H          4.86220       -7.35530        0.36900
H          6.00750       -7.29640       -1.03290
H          7.00750       -5.73340        1.04330
H          8.24080       -4.25140        2.17620
H          7.62670       -2.60720        2.43560
H          8.80850       -2.99110        1.07880
H          8.41700       -1.34300       -0.58930
H          8.15000       -0.82960        1.16510
H          7.89340        0.71020       -1.39580
H          8.70920        1.22980        0.18070
H          8.29820        2.82300       -1.43630
H          9.02090        4.05980       -0.38790
H          7.80620        4.50560       -1.62810
H          7.13290        5.78560        0.34620
H          5.86270        7.17740        1.73000
H          5.34870        6.45720        3.30390
H          4.21620        6.50680        1.89550
H          4.58540        3.93510        3.20120
H          4.39310        0.58860        2.26530
H          6.07830        0.65480        2.87660
H          4.51630        0.61650        2.06120
