64

P          1.06460        0.04110        0.06430
C          0.59010       -1.00190        1.54310
C         -0.22920       -2.15390        1.40790
C         -0.65560       -2.89000        2.51900
C         -0.27810       -2.51030        3.80100
C          0.53280       -1.39890        3.97230
C          0.95890       -0.66220        2.86570
C          0.55380        1.78720        0.23500
C          0.39380        2.40130        1.49180
C         -0.04860        3.72060        1.60000
C         -0.36160        4.44920        0.45570
C         -0.22030        3.85970       -0.80070
C          0.24010        2.54170       -0.91340
C         -0.13690       -0.61090       -1.19320
C         -1.63140       -0.70290       -1.11150
C         -2.41670       -0.18580       -0.08720
C         -3.80730       -0.36210       -0.12190
C         -4.40540       -1.08640       -1.16710
C         -3.61890       -1.61390       -2.19020
C         -2.24530       -1.42270       -2.16320
Pd         3.52460        0.04110        0.06430
Br         3.53800        1.35730        2.15810
C          3.76180       -1.08180       -1.73650
C          2.85220       -1.50550       -2.61150
P          5.98460        0.04110        0.06430
N          6.97300       -0.19630       -1.39610
C          6.67880        0.88940       -2.35220
C          8.40760       -0.41910       -1.23570
O          7.25380        0.81090        0.92450
C          6.69500        1.66120        1.90200
O          5.90780       -1.65590        0.14100
C          5.75440       -1.97540        1.51110
H         -0.57840       -2.51650        0.46190
H         -1.29210       -3.75410        2.38310
H         -0.61510       -3.07300        4.66200
H          0.82570       -1.09260        4.96960
H          1.54930        0.17680        3.10920
H          0.59670        1.89070        2.40580
H         -0.15850        4.17260        2.57780
H         -0.71840        5.46710        0.54580
H         -0.47470        4.42430       -1.68830
H          0.32910        2.11780       -1.90210
H          0.18590       -1.66230       -1.32610
H          0.07560       -0.07890       -2.14220
H         -1.97060        0.37590        0.72370
H         -4.42810        0.03370        0.66310
H         -5.47110       -1.24520       -1.18810
H         -4.06630       -2.18370       -2.99800
H         -1.64140       -1.84470       -2.96520
H          4.77280       -1.32400       -2.01600
H          1.82100       -1.30910       -2.53870
H          3.18580       -2.02590       -3.49960
H          5.59390        1.12610       -2.38790
H          6.95320        0.56760       -3.38560
H          7.23050        1.82140       -2.10400
H          8.57940       -1.28860       -0.57180
H          8.91640        0.48880       -0.85060
H          8.84150       -0.65870       -2.23150
H          7.49930        2.26460        2.37070
H          6.24890        1.05850        2.72090
H          5.98930        2.42050        1.48400
H          5.46650       -3.04120        1.60310
H          4.92590       -1.40540        1.99360
H          6.70240       -1.83320        2.08170
