55

P          1.00960       -0.00960        0.09910
C         -0.03290       -1.42710       -0.50090
C         -0.47280       -1.52470       -1.83420
C         -1.11640       -2.68370       -2.30000
C         -1.34360       -3.76500       -1.44820
C         -0.90340       -3.70400       -0.13100
C         -0.23550       -2.57170        0.32460
C          0.45360       -0.15920        1.83330
C          1.32940       -0.26480        2.92330
C          0.82080       -0.50890        4.20750
C         -0.56370       -0.67410        4.40770
C         -1.44290       -0.55440        3.33110
C         -0.93770       -0.27830        2.06190
C          0.49870        1.53880       -0.74570
C          0.74020        1.83600       -2.12650
C          1.52630        0.96740       -3.07560
C          0.22100        3.01970       -2.68380
C         -0.50600        3.91980       -1.90690
C         -0.70640        3.65600       -0.55290
C         -0.21830        2.47980        0.01700
Pd         3.46960       -0.00960        0.09910
Br         3.34410        2.35390        0.90430
C          3.26490       -1.98580       -0.65540
C          4.17080       -2.97230       -0.63180
N          5.56960       -0.00960        0.09910
C          6.36860       -0.80620       -0.69520
F          5.87080       -1.50460       -1.73910
C          7.76340       -0.78210       -0.59360
C          8.37450        0.05890        0.32160
C          7.58780        0.90570        1.08520
C          6.19780        0.87630        0.94110
H         -0.29780       -0.73870       -2.53690
H         -1.42760       -2.75200       -3.33290
H         -1.84310       -4.65440       -1.80790
H         -1.05230       -4.55010        0.53270
H          0.13350       -2.60520        1.34070
H          2.39650       -0.17990        2.78280
H          1.47930       -0.60680        5.05670
H         -0.95960       -0.90300        5.39020
H         -2.50500       -0.70210        3.46820
H         -1.64080       -0.22090        1.23840
H          1.95780        0.07370       -2.58850
H          2.35870        1.56280       -3.50920
H          0.87580        0.64960       -3.92120
H          0.37440        3.25220       -3.73090
H         -0.89370        4.83040       -2.35010
H         -1.26330        4.36320        0.04950
H         -0.41790        2.30370        1.06240
H          2.29850       -2.29440       -1.01270
H          5.13630       -2.87140       -0.15880
H          3.92310       -3.95490       -1.01550
H          8.36910       -1.40140       -1.24330
H          9.45260        0.07470        0.41720
H          8.04970        1.57720        1.79790
H          5.64850        1.52020        1.59550
