55

P          1.07310        0.06820       -0.00300
C          0.11820        1.57990        0.32490
C         -0.40680        1.86590        1.59510
C         -0.89680        3.15190        1.87950
C         -0.85760        4.16170        0.91070
C         -0.32900        3.89120       -0.35180
C          0.17080        2.62340       -0.63100
C          0.76430       -0.04140       -1.78410
C          1.81700       -0.02710       -2.71020
C          1.54470       -0.06870       -4.07910
C          0.22480       -0.11770       -4.53560
C         -0.82700       -0.12540       -3.62180
C         -0.56100       -0.08030       -2.25350
C          0.51620       -1.35150        0.99450
C          1.08020       -1.68120        2.25900
C          2.21600       -0.92470        2.89110
C          0.56470       -2.77520        2.98090
C         -0.49610       -3.52700        2.48200
C         -1.05470       -3.20420        1.25050
C         -0.55160       -2.13250        0.51340
Pd         3.53310        0.06820       -0.00300
Br         3.40270       -2.36560       -0.57880
C          3.37510        2.11140        0.55800
C          4.29340        3.07700        0.42600
N          5.63310        0.06820       -0.00300
C          6.28790       -0.93190       -0.67850
C          7.68380       -1.01340       -0.71060
F          8.29650       -1.98190       -1.43600
C          8.43960       -0.09700        0.00550
C          7.79090        0.88430        0.73950
C          6.39510        0.95620        0.71540
H         -0.38630        1.12390        2.38060
H         -1.27380        3.38890        2.86550
H         -1.20720        5.16060        1.13560
H         -0.25740        4.67680       -1.09290
H          0.63880        2.48360       -1.59660
H          2.84440        0.02150       -2.37760
H          2.35710       -0.05280       -4.79700
H          0.01330       -0.14390       -5.59640
H         -1.85500       -0.15120       -3.97440
H         -1.39800       -0.06140       -1.56650
H          2.56520       -0.07090        2.28490
H          3.07360       -1.61460        3.04510
H          1.89260       -0.53520        3.88000
H          0.98420       -3.04320        3.94450
H         -0.88940       -4.35990        3.05170
H         -1.88440       -3.78340        0.86510
H         -1.02010       -1.92020       -0.42970
H          2.42220        2.46370        0.91150
H          5.24180        2.93020       -0.06550
H          4.06860        4.09420        0.72120
H          5.75760       -1.65200       -1.26800
H          9.52030       -0.15880        0.00920
H          8.36330        1.57570        1.34520
H          5.96040        1.66660        1.38710
