63

P          0.91840        0.01350        0.05620
O          0.60820       -1.65350        0.25900
C          1.05210       -2.33300       -0.89770
C          0.63470       -3.79310       -0.80630
O          0.60820        1.09290        1.34610
C         -0.76020        0.97780        1.68650
C         -1.09120        1.90150        2.84830
C         -0.17270        0.60770       -1.26180
C         -1.21570       -0.12650       -1.84040
C         -1.84140        0.36070       -3.00160
C         -1.40810        1.55120       -3.57720
C         -0.40010        2.29450       -3.00040
C          0.21270        1.83510       -1.83670
Pd         3.37840        0.01350        0.05620
Br         3.37840       -1.10040        2.39450
C          3.37840        0.93810       -1.88480
C          3.87130        2.00460       -2.47760
P          5.83840        0.01350        0.05620
N          6.77820       -1.26010       -0.81940
C          6.39590       -1.50120       -2.21660
C          8.21360       -1.51550       -0.58030
N          6.79030        1.29380       -0.86370
C          8.21500        1.46580       -0.50890
C          6.63780        1.69520       -2.27500
N          6.33940       -0.64950        1.65120
C          6.29820        0.25360        2.80840
C          6.39480       -2.10420        1.94480
H          2.15740       -2.27680       -0.99750
H          0.58230       -1.94320       -1.82360
H          1.12530       -4.27450        0.06420
H          0.92930       -4.32950       -1.73360
H         -0.46870       -3.86830       -0.69170
H         -1.01570       -0.06290        1.99110
H         -1.41010        1.30620        0.84620
H         -0.51070        1.61480        3.74870
H         -2.17630        1.82670        3.08090
H         -0.86160        2.95370        2.57660
H         -1.51930       -1.06910       -1.42480
H         -2.62660       -0.21190       -3.46490
H         -1.87840        1.92230       -4.49260
H         -0.05770        3.22870       -3.44160
H          1.04070        2.40350       -1.43400
H          2.54520        0.54540       -2.45850
H          4.44740        2.71930       -1.94370
H          3.53060        2.23190       -3.49300
H          5.30460       -1.35690       -2.36460
H          6.64520       -2.54320       -2.50140
H          6.97750       -0.85400       -2.90290
H          8.54710       -1.17230        0.41800
H          8.85240       -1.10850       -1.38590
H          8.38840       -2.61230       -0.62390
H          8.46250        1.09950        0.50180
H          8.49690        2.53620       -0.59140
H          8.87820        0.97530       -1.26020
H          6.41610        2.78600       -2.29490
H          5.97600        1.04120       -2.85380
H          7.57810        1.70930       -2.86230
H          6.14980        1.30840        2.50030
H          7.25540        0.17740        3.36520
H          5.50860       -0.03520        3.52710
H          6.85790       -2.69960        1.14610
H          5.41630       -2.57050        2.09860
H          7.00830       -2.28380        2.85330
