110

P          0.99110        0.08700       -0.04860
C         -0.17530       -0.63760        1.36410
C         -0.26490       -2.20270        1.59150
C          0.77440       -2.86720        2.53320
C          0.89340       -2.07960        3.87350
C          0.95070       -0.52650        3.75370
C         -0.13100        0.00290        2.79680
C          0.65470        2.00140        0.23110
C          1.32210        2.87820       -0.80130
C          0.55090        2.74120       -2.15090
C         -0.70530        3.60360       -2.01170
C         -1.57080        3.11900       -0.84270
C         -0.74560        2.72410        0.43140
C          0.36060       -1.04190       -1.41820
C         -1.01650       -1.09370       -1.83440
C         -2.13650       -0.24360       -1.28780
C         -1.45200       -2.01030       -2.80430
C         -0.57050       -2.89920       -3.39790
C         -1.04170       -3.87990       -4.43520
C          0.75010       -2.88850       -2.99980
C          1.21350       -1.99760       -2.01180
C          2.61960       -2.15250       -1.59060
Pd         3.45110        0.08700       -0.04860
Br         3.45110        1.34470       -2.31270
C          3.45110       -0.95710        1.83090
C          4.29060       -0.96640        2.87450
P          5.91110        0.08700       -0.04860
N          6.76740        1.63330        0.25750
C          6.30020        2.78140       -0.60630
C          6.81510        4.14960       -0.12230
C          6.65160        2.65430       -2.10840
C          8.18320        1.59470        0.62380
C          8.74230        0.23670        0.31990
C         10.27460        0.24650        0.52340
C          8.11950       -0.84470        1.23600
N          6.63050       -0.94500        1.25160
C          6.18150       -2.40990        1.33080
C          6.48660       -3.34740        0.18520
C          6.63440       -3.11090        2.63020
N          6.99220       -0.13660       -1.57980
C          7.01780       -1.44550       -2.40160
C          5.71050       -1.97310       -2.96430
C          7.99460       -1.46440       -3.63050
C          8.44950       -0.01360       -1.17220
H         -1.18510       -0.38750        1.05880
H         -0.35240       -2.76810        0.64370
H         -1.21900       -2.37220        2.14070
H          1.71500       -3.08170        2.00030
H          0.47260       -3.90860        2.77940
H          1.74880       -2.45990        4.48170
H         -0.02850       -2.30490        4.44560
H          1.90910       -0.09140        3.47080
H          0.80100       -0.10090        4.77040
H         -0.11000        1.10620        2.76650
H         -1.08480       -0.27240        3.30230
H          1.18260        2.18180        1.19330
H          2.36240        2.65290       -0.68380
H          1.35670        3.95320       -0.53070
H          0.29020        1.68430       -2.38750
H          1.14510        3.13910       -2.99880
H         -1.31220        3.60740       -2.95300
H         -0.37540        4.64770       -1.84070
H         -2.17820        2.30850       -1.22540
H         -2.31920        3.90590       -0.59280
H         -1.38540        2.26660        1.20840
H         -0.47050        3.72460        0.85150
H         -1.75340        0.47280       -0.60700
H         -2.87530       -0.88960       -0.78400
H         -2.62850        0.28950       -2.12820
H         -2.49890       -2.03180       -3.09580
H         -2.13250       -3.78370       -4.62880
H         -0.84710       -4.91040       -4.07400
H         -0.49310       -3.71470       -5.38430
H          1.42060       -3.61160       -3.44990
H          3.10730       -2.98820       -2.13930
H          2.68640       -2.37990       -0.51130
H          3.12180       -1.21370       -1.82350
H          2.52450       -1.34190        1.96790
H          5.20030       -0.39740        2.91200
H          4.00780       -1.49590        3.77940
H          5.19280        2.82960       -0.52350
H          7.91170        4.25960       -0.24950
H          6.54880        4.31770        0.93980
H          6.35500        4.95660       -0.73420
H          7.74650        2.62120       -2.26790
H          6.25250        3.52320       -2.66940
H          6.18100        1.78250       -2.59070
H          8.30060        1.83790        1.70130
H          8.76620        2.33410        0.04240
H         10.53720        0.47210        1.57900
H         10.77160        0.98780       -0.13400
H         10.70660       -0.75580        0.27920
H          8.44250       -0.66960        2.28660
H          8.58330       -1.82020        0.94480
H          5.09950       -2.49900        1.30610
H          7.56540       -3.50110        0.00210
H          5.92100       -2.99520       -0.65910
H          6.02820       -4.34720        0.35340
H          7.73550       -3.23740        2.66150
H          6.18150       -4.13050        2.67800
H          6.30110       -2.57330        3.53750
H          7.45370       -2.24760       -1.78770
H          5.32870       -1.39280       -3.82350
H          4.99680       -1.99100       -2.17130
H          5.86010       -3.03370       -3.29380
H          7.67390       -0.76050       -4.42320
H          8.02590       -2.49190       -4.07510
H          9.06280       -1.26080       -3.40290
H          8.92460        0.75260       -1.82060
H          9.04730       -0.93640       -1.33350
