33

P          1.27500        0.00000        0.00000
O          0.34070        1.43570       -0.25220
C         -1.04280        1.27000       -0.13410
C         -1.39910       -0.16610        0.19010
C         -2.92770       -0.29790        0.30670
C         -0.81940       -1.04460       -0.97980
O          0.56350       -0.83230       -1.29650
O          0.73200       -0.22400        1.59180
C         -0.67410       -0.51120        1.54380
Pd         3.73500        0.00030       -0.00050
Br         3.73540       -2.57440        0.28080
C          3.73470        2.13760       -0.23390
C          3.72840        2.99300        0.78490
N          5.83500        0.00060       -0.00090
C          6.63940        1.08150       -0.07660
O          7.90650        0.75060       -0.03610
C          7.96380       -0.55880        0.07730
C          6.67600       -1.04680        0.09160
H         -1.50730        1.58400       -1.09030
H         -1.40360        1.95540        0.66570
H         -3.41370        0.00660       -0.64650
H         -3.31190        0.37380        1.10560
H         -3.21970       -1.34040        0.54190
H         -1.39460       -0.80050       -1.90050
H         -0.98630       -2.11930       -0.75460
H         -1.14660        0.09800        2.34200
H         -0.84340       -1.58150        1.79100
H          3.77010        2.52290       -1.24780
H          3.70980        2.64350        1.80910
H          3.74430        4.06050        0.57960
H          6.30010        2.10540       -0.16640
H          8.87940       -1.13330        0.14540
H          6.40300       -2.08270        0.17780
