42

P          0.97640        0.05560       -0.07970
C         -0.25600       -1.18530       -0.59760
C          0.71930       -0.16280        1.71200
C          0.20590        1.43930       -0.98490
Pd         3.43640        0.05560       -0.07970
Br         3.57920       -1.96730        1.34910
C          3.34510        1.68690       -1.38710
C          3.00580        1.54060       -2.66480
P          5.89640        0.05560       -0.07970
C          7.22680       -1.09420        0.42970
C          6.33840        0.47840       -1.79560
C          6.36780        1.48790        1.05660
C          5.87790        1.20370        2.48790
C          7.90790        1.69270        1.09880
C          5.75750        2.81180        0.58540
H         -1.28440       -0.92730       -0.28640
H          0.03010       -2.16380       -0.14880
H         -0.20380       -1.30730       -1.70100
H         -0.36700       -0.12310        1.93800
H          1.22810        0.65190        2.26460
H          1.09310       -1.14410        2.05590
H         -0.89240        1.41370       -0.79430
H          0.35740        1.33210       -2.07580
H          0.58410        2.40890       -0.61370
H          3.52100        2.69460       -1.03920
H          2.77960        0.56140       -3.06260
H          2.94510        2.41340       -3.31030
H          7.06340       -2.04550       -0.11930
H          7.13400       -1.33510        1.51030
H          8.24400       -0.75160        0.17510
H          6.07420       -0.38050       -2.44700
H          7.43640        0.63500       -1.86460
H          5.82770        1.38650       -2.15460
H          6.32060        0.28370        2.90070
H          4.76700        1.09730        2.49810
H          6.14340        2.04730        3.16850
H          8.44110        0.86040        1.58440
H          8.17160        2.58740        1.71220
H          8.31620        1.85560        0.07710
H          4.65550        2.78850        0.70870
H          6.04450        3.04140       -0.46780
H          6.12190        3.65720        1.21790
