60

P          0.96270       -0.09230       -0.00960
C          0.18620       -0.02340       -1.64490
C         -1.06580       -0.55470       -1.99770
C         -1.48460       -0.51430       -3.34050
C         -0.68530        0.08940       -4.31860
C          0.54080        0.65200       -3.96250
C          0.97460        0.58490       -2.63980
C          0.65880       -1.87840        0.26790
C          0.40730       -2.85280       -0.72640
C          0.08550       -4.16870       -0.36860
C         -0.00110       -4.53200        0.97560
C          0.25520       -3.58740        1.96690
C          0.58770       -2.27730        1.61570
C          0.19220        1.32390        0.82720
C          0.41710        2.67010        0.44360
O          1.25920        2.94860       -0.58590
C          1.57580        4.21720       -1.03470
C         -0.23910        3.70360        1.15570
C         -1.10180        3.40840        2.21470
C         -1.32510        2.08290        2.57870
C         -0.68850        1.05030        1.88750
Pd         3.42270       -0.09230       -0.00960
Br         3.42270       -2.18610       -1.53410
C          3.42270        1.64590        1.25580
C          3.42540        1.54150        2.58130
C          5.57270       -0.09230       -0.00960
N          6.38970        0.99780        0.10000
C          6.08250        2.42060       -0.00460
C          7.65840        0.53610        0.11390
Cl         9.10800        1.52540        0.17870
C          7.62880       -0.82400        0.02040
Cl         9.04230       -1.87650        0.05240
N          6.34540       -1.22500       -0.08680
C          5.94920       -2.62810        0.02620
H         -1.68770       -1.04420       -1.25990
H         -2.42560       -0.95970       -3.62980
H         -1.00410        0.12140       -5.35210
H          1.16400        1.12850       -4.71020
H          1.94020        1.01140       -2.39060
H          0.45100       -2.61790       -1.77940
H         -0.11530       -4.90330       -1.13690
H         -0.26800       -5.54430        1.24900
H          0.18340       -3.86600        3.01070
H          0.76370       -1.56290        2.40960
H          2.31720        4.14000       -1.85950
H          2.02420        4.81600       -0.21770
H          0.66610        4.72440       -1.41950
H         -0.09180        4.74360        0.90350
H         -1.59190        4.20730        2.74780
H         -1.99620        1.85370        3.39690
H         -0.88740        0.03350        2.19050
H          3.33520        2.63580        0.82990
H          3.45270        0.57100        3.06030
H          3.38140        2.44190        3.18860
H          5.06010        2.59160       -0.36650
H          6.69630        2.84840       -0.82870
H          6.33220        2.95800        0.93140
H          6.74780       -3.22480        0.51600
H          5.80980       -3.09240       -0.96620
H          5.07690       -2.72410        0.71030
