60

P          1.27500       -0.00000        0.00000
N          0.28350       -0.02910       -1.48000
C         -1.15300       -0.05680       -1.29340
C         -1.47960        0.01010        0.18640
C         -3.00900        0.01850        0.34290
C         -0.85240       -1.27280        0.87050
N          0.60550       -1.48680        0.62800
N          0.61380        1.52520        0.53480
C         -0.84970        1.34330        0.76600
Pd         3.73500        0.00030       -0.00050
Br         3.73380       -0.20680        2.46770
C          3.67640        0.35670       -2.05930
C          4.16000       -0.48950       -2.97050
P          6.19500        0.00070       -0.00090
N          7.25500        1.19850       -0.76970
C          6.95270        2.45240       -0.02030
C          8.69920        1.00170       -0.85030
O          6.43210       -1.18880       -1.12920
C          6.60970       -2.45590       -0.63270
C          5.84030       -3.49040       -1.20360
C          5.89700       -4.79950       -0.72450
C          6.74940       -5.12680        0.31660
C          7.55320       -4.14380        0.88410
C          7.50820       -2.79910        0.44950
C          8.42060       -1.86090        1.19570
C          9.75330       -2.26760        1.43520
C         10.64210       -1.45730        2.14150
C         10.21480       -0.24150        2.66700
C          8.89670        0.16790        2.48110
C          8.00580       -0.61610        1.73290
O          6.76600       -0.14510        1.54890
H          0.59160       -0.82550       -2.08390
H         -1.57660       -0.98280       -1.74940
H         -1.58670        0.80700       -1.84120
H         -3.44940       -0.89690       -0.11360
H         -3.44590        0.89400       -0.18910
H         -3.30160        0.06440        1.40860
H         -1.39470       -2.17680        0.50820
H         -1.03100       -1.21030        1.96180
H          0.75740       -2.23190       -0.09030
H          0.77930        2.21950       -0.23010
H         -1.38140        2.21580        0.32080
H         -1.04570        1.37520        1.85650
H          3.19530        1.26060       -2.40750
H          4.62350       -1.40490       -2.68370
H          4.09240       -0.26830       -4.03010
H          5.85420        2.63540        0.05180
H          7.39260        3.34560       -0.51150
H          7.33320        2.39860        1.02520
H          8.93720        0.05930       -1.35740
H          9.17980        1.06900        0.15260
H          9.12670        1.84210       -1.42090
H          5.15400       -3.30570       -2.00870
H          5.26810       -5.56320       -1.16280
H          6.77900       -6.13680        0.69640
H          8.19490       -4.44210        1.70820
H         10.11610       -3.21170        1.04970
H         11.66710       -1.77630        2.28560
H         10.90580        0.38940        3.21150
H          8.57210        1.11860        2.88580
