66

P          1.08170        0.00040       -0.05760
C          0.05410       -1.04700        1.05230
C         -0.96240       -0.55130        1.89520
C         -1.51720       -1.36500        2.89390
C         -1.05550       -2.66880        3.08280
C         -0.07140       -3.18340        2.24290
C          0.45400       -2.38720        1.21640
C          0.61170        1.62560        0.61200
C          1.03830        2.01520        1.88630
C          0.53600        3.18050        2.48410
C         -0.42300        3.95670        1.80970
C         -0.84890        3.58070        0.54270
C         -0.32990        2.43750       -0.06290
C          0.28560       -0.32670       -1.66510
C          0.97680       -0.73330       -2.82660
O          2.31270       -0.97120       -2.77040
C          3.07770       -1.44490       -3.82040
C          0.24540       -0.90800       -4.03150
C         -1.13030       -0.70560       -4.07080
C         -1.81450       -0.35380       -2.91410
C         -1.11650       -0.17530       -1.72590
Pd         3.54170        0.00040       -0.05760
Br         3.54170        1.78190       -1.93760
C          3.54170       -1.47850        1.50300
C          4.59780       -2.13070        1.99150
N          5.64170        0.00040       -0.05760
C          6.38780        0.48820        0.89370
C          5.92370        1.22940        2.14350
C          4.61720        1.19530        2.66830
C          4.25370        1.90250        3.81820
C          5.16970        2.73380        4.44460
C          6.45170        2.85550        3.91850
C          6.83000        2.10610        2.79460
N          7.75470        0.46040        0.52420
C          7.85350       -0.26390       -0.70050
C          6.43760       -0.15130       -1.24770
H         -1.31290        0.46390        1.82480
H         -2.27960       -0.97000        3.55170
H         -1.44410       -3.27490        3.89330
H          0.30720       -4.18580        2.40630
H          1.25340       -2.80720        0.61360
H          1.72920        1.40120        2.44090
H          0.85880        3.46780        3.47850
H         -0.84440        4.82840        2.28820
H         -1.60850        4.16390        0.03180
H         -0.71180        2.18370       -1.03320
H          4.11900       -1.60460       -3.47530
H          3.08210       -0.71250       -4.65450
H          2.67540       -2.41920       -4.17930
H          0.73590       -1.20370       -4.94900
H         -1.67720       -0.83370       -4.99830
H         -2.88880       -0.20660       -2.93670
H         -1.68140        0.10170       -0.84600
H          2.61430       -1.69120        1.98510
H          5.59930       -1.99880        1.61280
H          4.44020       -2.82990        2.81100
H          3.84690        0.64820        2.22320
H          3.24960        1.81750        4.21600
H          4.87580        3.29760        5.32150
H          7.15280        3.53670        4.38250
H          7.83130        2.26020        2.42540
H          8.54480        0.65470        1.15690
H          8.09640       -1.31380       -0.41900
H          8.61860        0.13170       -1.40270
H          6.18340       -1.08690       -1.79910
H          6.30230        0.73590       -1.89300
