56

P          1.06770        0.00730       -0.07320
C         -0.01870       -0.52390        1.30580
C         -1.11400        0.21530        1.79820
C         -1.71150       -0.13520        3.02000
C         -1.22250       -1.20630        3.76930
C         -0.15860       -1.96250        3.28460
C          0.42350       -1.63640        2.05540
C          0.62920        1.80210       -0.02300
C          0.95560        2.56320        1.09660
C          0.46100        3.85980        1.27120
C         -0.39310        4.41500        0.31200
C         -0.70490        3.69150       -0.83360
C         -0.18070        2.40760       -1.01330
C          0.43250       -1.01990       -1.47090
C          1.06430       -2.21730       -1.91640
O          2.14940       -2.69270       -1.24950
C          2.71510       -3.93810       -1.47630
C          0.50690       -2.92510       -3.00860
C         -0.64890       -2.48600       -3.64660
C         -1.30350       -1.36040       -3.17380
C         -0.78560       -0.66210       -2.08650
Pd         3.52770        0.00730       -0.07320
Br         3.52770        0.80980       -2.53580
C          3.52770       -0.65880        1.97100
C          4.43720       -1.22980        2.77250
N          5.62770        0.00730       -0.07320
C          6.31950       -0.28590       -1.22890
F          5.69670       -0.72240       -2.34200
C          7.71580       -0.32450       -1.25680
C          8.43650       -0.00280       -0.11970
F          9.79200       -0.01750       -0.14120
C          7.75520        0.35120        1.03400
C          6.35690        0.33720        1.04720
F          5.76180        0.85140        2.14830
H         -1.48510        1.08260        1.28140
H         -2.53350        0.45160        3.40640
H         -1.65550       -1.44370        4.73520
H          0.23750       -2.78020        3.87650
H          1.27860       -2.21880        1.73270
H          1.56530        2.12900        1.89310
H          0.69760        4.43050        2.15680
H         -0.81330        5.40320        0.45310
H         -1.36920        4.11740       -1.57670
H         -0.47240        1.92510       -1.92140
H          3.53000       -4.11900       -0.74970
H          3.12530       -3.99240       -2.50660
H          1.94940       -4.73670       -1.34200
H          0.95690       -3.83310       -3.38580
H         -1.05610       -3.03280       -4.48900
H         -2.22790       -1.03410       -3.64250
H         -1.37810        0.15820       -1.73880
H          2.57670       -0.50470        2.44500
H          5.44090       -1.48940        2.47580
H          4.15050       -1.45200        3.79900
H          8.23240       -0.62250       -2.16100
H          8.30640        0.65760        1.91380
