71

P          1.02350        0.06460       -0.07260
C          0.72040        0.82580       -1.70840
C          0.44690        2.20650       -1.81540
C          0.16010        2.78580       -3.05570
C          0.16350        2.00550       -4.21110
C          0.44230        0.64210       -4.12610
C          0.70500        0.05500       -2.88520
C          0.56080       -1.67650       -0.12370
C          1.26640       -2.62560        0.62670
C          0.85330       -3.96450        0.62580
C         -0.26100       -4.35910       -0.12270
C         -0.97880       -3.40910       -0.86560
C         -0.56850       -2.07670       -0.85670
C         -0.41470        0.76070        0.87230
C         -0.36330        0.51290        2.38660
C         -0.03410        1.55680        3.29140
C         -0.03960        1.34400        4.67520
C         -0.38590        0.09470        5.19090
C         -0.70970       -0.94770        4.31380
C         -0.69290       -0.74310        2.92750
Pd         3.48350        0.06460       -0.07260
Br         3.48350       -1.42460       -2.19170
C          3.48350        1.30080        1.68650
C          4.49090        1.74130        2.43550
P          5.94350        0.06460       -0.07260
C          7.09760       -0.67120       -1.28550
C          6.58320        1.74910       -0.21260
C          7.44160        2.32360        0.73990
C          8.03190        3.56840        0.49320
C          7.78160        4.24130       -0.70590
C          6.92950        3.67760       -1.65680
C          6.33170        2.43940       -1.41050
C          6.44410       -1.08900        1.21810
C          5.60100       -2.13330        1.62750
C          6.09050       -3.10670        2.50720
C          7.40920       -3.04800        2.97840
C          8.25000       -2.01220        2.56830
C          7.77010       -1.05000        1.68270
H          0.43570        2.85160       -0.95090
H         -0.06840        3.84220       -3.12020
H         -0.05340        2.45600       -5.17110
H          0.44580        0.03510       -5.02190
H          0.89180       -1.00590       -2.85930
H          2.11780       -2.32700        1.22340
H          1.38980       -4.69600        1.21640
H         -0.57690       -5.39520       -0.11480
H         -1.83890       -3.71110       -1.43860
H         -1.14500       -1.35660       -1.42340
H         -1.39840        0.49340        0.44840
H         -0.30820        1.85830        0.78210
H          0.22720        2.54630        2.93350
H          0.20850        2.15180        5.36200
H         -0.40960       -0.06430        6.26310
H         -0.98500       -1.90950        4.72020
H         -0.96270       -1.55880        2.27500
H          2.49100        1.59480        2.00480
H          5.51380        1.50230        2.24620
H          4.26660        2.36630        3.29640
H          6.89970       -0.22450       -2.28370
H          6.85860       -1.75480       -1.38080
H          8.16250       -0.54190       -1.02390
H          7.68500        1.81060        1.65740
H          8.70400        4.00120        1.22230
H          8.25800        5.19260       -0.90490
H          6.74940        4.18800       -2.59460
H          5.70350        1.99930       -2.17610
H          4.59630       -2.21440        1.24430
H          5.45530       -3.92640        2.80840
H          7.79360       -3.81540        3.63550
H          9.27860       -1.97400        2.90700
H          8.45440       -0.28060        1.35020
