64

P          0.96510        0.07470        0.05650
C          0.39560        1.65710        0.85290
C         -0.40390        1.64000        2.01970
C         -0.86180        2.82590        2.61250
C         -0.52030        4.06200        2.06960
C          0.25630        4.11130        0.92010
C          0.68920        2.92850        0.31620
C          0.64790       -0.01510       -1.71360
C         -0.04090        1.01190       -2.38030
C         -0.31510        0.90610       -3.74590
C          0.09310       -0.22480       -4.45610
C          0.77750       -1.25190       -3.80010
C          1.05460       -1.14880       -2.43230
C         -0.26620       -1.14820        0.70400
C         -1.74980       -1.07520        0.55680
C         -2.34660       -1.15100       -0.70540
C         -3.73400       -1.25710       -0.81780
C         -4.53270       -1.30130        0.32920
C         -3.94630       -1.23230        1.59440
C         -2.55760       -1.13050        1.71460
Pd         3.42510        0.07470        0.05650
Br         3.42510        2.25220       -1.34580
C          3.42510       -1.73290        1.22070
C          2.57420       -2.74300        1.34810
N          5.52510        0.07470        0.05650
C          6.24550        1.26670        0.11320
C          5.65020        2.59490        0.49430
C          7.64860        1.29020        0.08400
C          8.37170        0.11650        0.02290
C          9.87520        0.12870        0.01210
C          7.68140       -1.07960       -0.00500
C          6.27120       -1.10850        0.02330
C          5.68320       -2.47440       -0.26150
H         -0.69340        0.72240        2.49290
H         -1.48270        2.78850        3.49790
H         -0.86670        4.97990        2.52780
H          0.51510        5.06820        0.48290
H          1.22480        3.05310       -0.58490
H         -0.38740        1.88710       -1.85440
H         -0.85270        1.69860       -4.25090
H         -0.12690       -0.30690       -5.51250
H          1.08620       -2.13080       -4.35070
H          1.57570       -1.95580       -1.93290
H         -0.00450       -1.28590        1.77740
H         -0.05540       -2.10130        0.19270
H         -1.74580       -1.16920       -1.59860
H         -4.18580       -1.33730       -1.79600
H         -5.60380       -1.40910        0.23850
H         -4.56160       -1.29020        2.48410
H         -2.12500       -1.12270        2.70770
H          4.31870       -1.81410        1.82650
H          1.69500       -2.84310        0.77660
H          2.82170       -3.55480        2.02740
H          4.62080        2.48930        0.88970
H          5.75810        3.33660       -0.32540
H          6.19440        3.00070        1.37390
H          8.18100        2.23310        0.16620
H         10.27880        1.16460        0.04890
H         10.25230       -0.36010       -0.91170
H         10.25720       -0.42190        0.89630
H          8.25010       -2.00200       -0.08100
H          6.39690       -3.08780       -0.85340
H          4.79360       -2.39270       -0.91980
H          5.54210       -3.08530        0.65140
