79

P          1.07280        0.06830       -0.00560
C         -0.26220       -0.02650        1.41540
C         -0.19820       -1.26110        2.41920
C          0.80320       -1.20070        3.62310
C          0.77980        0.17940        4.34990
C          0.68460        1.41350        3.41600
C         -0.44780        1.20690        2.37730
C          0.66210        1.77410       -0.82830
C          1.17370        2.94110        0.04350
C          2.62920        3.26960       -0.25200
C          2.70280        3.97760       -1.60800
C          2.14320        3.11510       -2.73820
C          0.88850        2.24020       -2.33980
C          0.59140       -1.43400       -0.90600
C          1.19290       -2.70950       -0.70810
C          2.34140       -2.95820        0.22030
C          0.69380       -3.82560       -1.40050
C         -0.39220       -3.70070       -2.26330
C         -0.99350       -2.45830       -2.44840
C         -0.50590       -1.33530       -1.77680
Pd         3.53280        0.06830       -0.00560
Br         3.53280        0.34540       -2.58070
C          3.53280       -0.16170        2.13210
C          4.50150       -0.41030        3.01820
C          5.68280        0.06830       -0.00560
N          6.46070        0.92990       -0.58840
C          6.06750        2.19340       -1.16270
C          6.44400        3.36560       -0.22170
C          7.86220        0.63270       -0.33450
C          7.84870       -0.58900        0.56830
N          6.44950       -0.91980        0.67930
C          6.02060       -2.30980        0.85450
C          6.41800       -3.23100       -0.32050
H         -1.21910       -0.12160        0.86430
H         -0.09630       -2.23040        1.89640
H         -1.18550       -1.28270        2.93030
H          1.79080       -1.55520        3.31020
H          0.57130       -1.97770        4.37450
H          1.64100        0.27980        5.05910
H         -0.13740        0.20100        4.97020
H          1.63320        1.69110        2.92870
H          0.46420        2.30010        4.05580
H         -0.68790        2.12700        1.82220
H         -1.36510        1.04050        2.98520
H         -0.44640        1.72800       -0.75280
H          1.12950        2.71440        1.09660
H          0.55720        3.85090       -0.13460
H          3.21640        2.33680       -0.18150
H          3.01540        3.97080        0.51560
H          3.75100        4.28010       -1.84310
H          2.10510        4.90690       -1.53410
H          2.99210        2.59090       -3.14880
H          1.92300        3.74750       -3.62670
H          0.65400        1.46120       -3.09700
H          0.08810        3.00120       -2.47380
H          2.65400       -2.04660        0.73570
H          3.20130       -3.35430       -0.35940
H          2.05320       -3.70210        0.99290
H          1.14220       -4.80290       -1.25950
H         -0.77300       -4.57190       -2.78030
H         -1.84680       -2.36680       -3.10740
H         -1.00460       -0.38730       -1.92350
H          2.57950       -0.00420        2.46400
H          5.52980       -0.56820        2.77270
H          4.24960       -0.47830        4.07070
H          4.98640        2.23910       -1.31350
H          6.55650        2.32530       -2.15180
H          5.93980        3.25480        0.76540
H          6.13780        4.34110       -0.65410
H          7.53730        3.43100       -0.03570
H          8.39650        1.44590        0.19360
H          8.35480        0.42910       -1.31170
H          8.22240       -0.34860        1.58400
H          8.47370       -1.39310        0.12620
H          4.92760       -2.36260        0.98550
H          6.49030       -2.71380        1.77490
H          5.92560       -2.91390       -1.26380
H          6.10460       -4.27310       -0.09610
H          7.51510       -3.26400       -0.47980
