36

C          0.90100       -0.64300       -0.00200
N          0.91570        0.68780        0.19210
C          2.08090        1.55480        0.31900
C         -0.37050        1.09600        0.13110
C         -1.16220       -0.01580       -0.06740
N         -0.36350       -1.09940       -0.14450
C         -0.81300       -2.48960       -0.22420
Pd         2.65840       -1.88140       -0.01350
Br         3.27310       -1.03120        2.35450
C          2.14820       -2.58720       -1.97920
C          1.20000       -2.05310       -2.75740
N          4.37500       -3.09110       -0.02470
C          4.87200       -3.61850       -1.19340
C          5.95030       -4.50660       -1.22650
C          6.48630       -5.01140       -2.53830
C          6.52000       -4.91100       -0.02660
C          6.05190       -4.36910        1.16380
C          5.00840       -3.43520        1.14460
H          3.01630        0.96030        0.26250
H          2.04070        2.11180        1.27410
H          2.09280        2.27740       -0.52800
H         -0.70480        2.12000        0.22170
H         -2.24100       -0.03380       -0.13050
H         -1.92250       -2.53960       -0.24340
H         -0.46170       -3.03560        0.67880
H         -0.43290       -3.00960       -1.11570
H          2.61580       -3.42780       -2.45170
H          0.61600       -1.19300       -2.47360
H          1.00060       -2.48660       -3.73390
H          4.52570       -3.30730       -2.14630
H          5.95230       -4.56120       -3.40420
H          6.37340       -6.11220       -2.59740
H          7.56070       -4.74390       -2.62820
H          7.32990       -5.62890       -0.01700
H          6.48240       -4.68810        2.10450
H          4.66670       -3.11180        2.10260
