62

C          0.90100       -0.64300       -0.00200
N         -0.30320       -1.18110        0.41250
C         -0.77430       -2.58190        0.69550
C          0.06140       -3.80900        0.65360
C          1.52740       -4.03630        0.33610
C         -0.53520       -5.07140        0.83600
C         -1.87600       -5.23660        0.98190
C         -2.47870       -6.59250        0.94740
C         -2.69270       -4.14150        1.05420
C         -2.19750       -2.84320        0.92570
C         -3.34860       -1.84520        0.96840
C         -1.10820       -0.08600        0.45820
C         -0.46880        1.00250        0.04450
N          0.80450        0.72640       -0.29210
C          1.66270        1.89480       -0.56310
C          1.13930        3.19780       -0.98960
C         -0.21780        3.51690       -1.61520
C          1.92030        4.34800       -0.80470
C          3.19330        4.27620       -0.26970
C          3.93160        5.51790        0.12640
C          3.75800        3.03050       -0.02960
C          3.02460        1.85400       -0.18330
C          3.69890        0.58300        0.15190
Pd         2.65840       -1.88140       -0.01350
Br         2.73130       -1.75400       -2.59930
C          2.59790       -1.98730        2.13300
C          3.68600       -2.02640        2.89900
N          4.37500       -3.09110       -0.02470
C          5.10790       -3.38570       -1.12920
O          6.14000       -4.15380       -0.86100
C          6.11400       -4.41120        0.41730
C          5.01040       -3.80080        0.94660
H          2.19210       -4.00630        1.20320
H          1.80420       -3.63010       -0.64360
H          1.80120       -5.10180        0.16740
H          0.04950       -5.98450        0.80120
H         -1.70510       -7.37750        0.82300
H         -3.12140       -6.61270        0.04030
H         -3.08300       -6.78270        1.85290
H         -3.75120       -4.33400        1.16820
H         -4.35680       -2.29250        1.07530
H         -3.40720       -1.32350       -0.01290
H         -3.27010       -1.17570        1.85420
H         -2.09180        0.07250        0.75220
H         -0.94390        1.96940        0.09510
H         -0.82600        2.64360       -1.91730
H         -0.05930        4.07980       -2.56500
H         -0.80950        4.18490       -0.94740
H          1.49930        5.32800       -1.03310
H          3.49580        6.43420       -0.32240
H          5.01640        5.43920       -0.08300
H          3.80870        5.61260        1.23010
H          4.77450        2.98550        0.34330
H          4.76880        0.70880        0.40220
H          3.65740       -0.05490       -0.74500
H          3.18150        0.15260        1.01520
H          1.70190       -1.69240        2.67050
H          4.66720       -1.94600        2.45250
H          3.61900       -1.88540        3.97090
H          4.90610       -3.06300       -2.13040
H          6.83380       -5.01550        0.95480
H          4.75970       -3.92570        1.97930
