51

C          0.90100       -0.64300       -0.00200
N         -0.38240       -1.09250        0.01800
C         -0.88510       -2.47760       -0.02510
C         -1.66300       -2.79370        1.25640
C         -1.80460       -2.69380       -1.24450
C         -1.15840        0.01480        0.03150
C         -0.35080        1.12600        0.05370
N          0.93460        0.72090        0.04740
C          2.10780        1.60140        0.21180
C          2.22970        2.61050       -0.93450
C          2.01030        2.39330        1.53920
Pd         2.65840       -1.88140       -0.01350
Br         2.81120       -1.41800       -2.46570
C          2.58110       -2.30810        2.03870
C          1.70220       -1.76490        2.86780
C          4.41590       -3.11990       -0.02500
N          5.49300       -2.86890       -0.69160
C          5.78970       -1.66750       -1.44120
C          6.50250       -3.88030       -0.48020
C          5.95410       -4.69930        0.68780
N          4.57770       -4.28380        0.76760
C          3.49880       -5.22030        1.02470
H         -0.03520       -3.18970       -0.10710
H         -2.48270       -2.05980        1.41390
H         -0.97800       -2.76230        2.12660
H         -2.11270       -3.80850        1.20010
H         -2.69190       -2.02430       -1.20900
H         -2.17900       -3.74160       -1.26030
H         -1.25730       -2.51130       -2.19230
H         -2.24050        0.02050        0.03310
H         -0.68150        2.15540        0.10510
H          3.01910        0.96660        0.25700
H          1.33410        3.27070       -0.96480
H          2.32800        2.09170       -1.90680
H          3.12030        3.25830       -0.77550
H          1.23810        3.19430        1.48000
H          2.98080        2.88850        1.76360
H          1.75170        1.73490        2.39470
H          3.33580       -2.93990        2.49460
H          0.92210       -1.06980        2.55620
H          1.76380       -1.97340        3.94280
H          5.02580       -0.88630       -1.29700
H          5.97130       -1.90310       -2.50930
H          6.71030       -1.20570       -1.02100
H          7.49060       -3.45050       -0.19920
H          6.58860       -4.47710       -1.41260
H          6.43830       -4.36300        1.63220
H          6.10920       -5.79070        0.55170
H          3.90880       -6.20070        1.34710
H          2.91310       -5.38050        0.09580
H          2.82330       -4.88190        1.82720
