57

C          0.90100       -0.64300       -0.00200
N         -0.39390       -1.15600       -0.03160
C         -0.98360       -2.51010        0.04860
C          0.09570       -3.58060        0.18330
C         -1.95160       -2.56310        1.26630
C         -1.82150       -2.80060       -1.22630
C         -1.22860       -0.10480       -0.09790
C         -0.52260        1.02010       -0.16340
N          0.80690        0.75470       -0.15520
C          1.76160        1.87950       -0.42260
C          1.03390        3.27210       -0.57640
C          2.77030        2.05510        0.70480
C          2.45230        1.64310       -1.78230
Pd         2.65840       -1.88140       -0.01350
Br         2.55830       -1.99960       -2.59890
C          2.74160       -1.78340        2.13260
C          1.71150       -1.37300        2.87870
C          4.41590       -3.11990       -0.02500
N          4.94520       -3.81190       -1.03690
C          4.50940       -4.04660       -2.40170
C          6.12870       -4.53570       -0.67900
C          6.52930       -3.94640        0.61650
N          5.32330       -3.33150        1.12540
C          5.05720       -3.66500        2.50970
H          0.70810       -3.40160        1.08630
H          0.74630       -3.57730       -0.71510
H         -0.37920       -4.58120        0.26980
H         -1.43800       -2.25770        2.20080
H         -2.39250       -3.57100        1.39590
H         -2.81530       -1.87270        1.13280
H         -1.19020       -2.77790       -2.13840
H         -2.63690       -2.05490       -1.36470
H         -2.31410       -3.79350       -1.15370
H         -2.30930       -0.14090       -0.13240
H         -1.01810        1.97550       -0.26680
H          0.48840        3.55350        0.35310
H          0.31120        3.27450       -1.42540
H          1.74290        4.10130       -0.78790
H          2.23950        2.31110        1.64790
H          3.46550        2.89770        0.47130
H          3.36580        1.13480        0.85400
H          1.68340        1.38560       -2.54630
H          3.19690        0.82850       -1.72730
H          2.96470        2.56470       -2.14550
H          3.52120       -2.04850        2.74190
H          0.75430       -1.10680        2.46260
H          1.80030       -1.38460        3.96410
H          3.48130       -4.47200       -2.41920
H          5.13930       -4.82800       -2.89270
H          4.74050       -3.16410       -3.02760
H          6.96220       -4.40660       -1.41390
H          5.85790       -5.61020       -0.59520
H          7.26660       -3.13620        0.45200
H          7.01050       -4.73850        1.24480
H          5.72770       -4.45240        2.91430
H          4.04230       -4.05450        2.66850
H          5.37230       -2.78750        3.13040
