59

C          0.90100       -0.64300       -0.00200
N         -0.39980       -1.07160       -0.09300
C         -0.95270       -2.40290       -0.45310
C         -0.35100       -3.55380        0.39350
C         -1.01480       -3.73200        1.77260
C         -2.51040       -4.02740        1.59110
C         -3.17960       -2.82190        0.93680
C         -2.53010       -2.53520       -0.44380
C         -1.16610        0.01730        0.23040
C         -0.33590        1.08310        0.47400
N          0.94420        0.70050        0.29100
C          2.13060        1.59290        0.20280
C          2.62370        1.53280       -1.26720
C          1.58510        2.18490       -2.21760
C          1.53370        3.69100       -1.94780
C          1.09560        3.94500       -0.49930
C          1.93140        3.12870        0.52370
Pd         2.65840       -1.88140       -0.01350
Br         2.48550       -2.10290       -2.58820
C          2.80200       -1.69760        2.12380
C          1.88530       -1.11070        2.89880
N          4.37500       -3.09110       -0.02470
C          5.09620       -3.23010       -1.18360
C          6.25780       -4.00120       -1.24010
F          7.01460       -4.01440       -2.36560
C          6.63510       -4.74700       -0.13440
C          5.87960       -4.66460        1.02690
C          4.78820       -3.79160        1.08190
H         -0.62990       -2.55350       -1.49850
H          0.74290       -3.41800        0.49410
H         -0.52300       -4.50340       -0.16240
H         -0.88500       -2.82360        2.40190
H         -0.53690       -4.59080        2.29050
H         -2.98400       -4.24430        2.57670
H         -2.64510       -4.93670        0.95860
H         -3.10270       -1.95020        1.62130
H         -4.26210       -3.04670        0.80190
H         -3.02770       -1.66440       -0.92330
H         -2.78920       -3.41770       -1.06890
H         -2.23260        0.05190        0.29330
H         -0.66870        2.07640        0.71510
H          2.90310        1.19770        0.89570
H          2.78000        0.47920       -1.55380
H          3.59610        2.05450       -1.38550
H          0.57360        1.74030       -2.08400
H          1.87820        2.02160       -3.27290
H          0.82600        4.19140       -2.64670
H          2.54420        4.11670       -2.13240
H          0.02100        3.70950       -0.43100
H          1.18700        5.03960       -0.29310
H          1.53440        3.29120        1.54740
H          2.94780        3.58440        0.49960
H          3.66340       -2.04640        2.66320
H          0.96980       -0.68960        2.51810
H          2.05780       -1.04370        3.96950
H          4.87780       -2.65000       -2.05460
H          7.50500       -5.38820       -0.17920
H          6.12960       -5.28190        1.88040
H          4.21130       -3.83520        1.98160
