74

P          1.05580       -0.01960        0.08060
C          0.23280        1.30710       -1.00720
C         -1.27360        1.38640       -1.28300
C          0.65590        2.73500       -0.58910
C          0.66650       -1.68310       -0.68490
C         -0.84170       -2.01990       -0.79200
C          1.30580       -1.89140       -2.05110
C          0.55420        0.34610        1.86110
C          0.98320        1.70340        2.42720
C         -0.95830        0.18390        2.12970
Pd         3.51580       -0.01960        0.08060
Br         3.51580       -1.99570        1.75500
C          3.51580        1.62070       -1.30930
C          3.27640        1.42010       -2.60380
P          5.97580       -0.01960        0.08060
C          6.90410       -0.42580       -1.54940
C          6.60050        0.59450       -2.66260
C          8.43500       -0.62980       -1.47490
C          6.33570       -1.77550       -2.05730
C          6.49700        1.74940        0.19570
C          5.56920        2.77580        0.48230
C          5.95560        4.12020        0.49450
C          7.28950        4.47320        0.30390
C          8.24270        3.47110        0.17200
C          7.85270        2.13550        0.13920
C          6.50800       -1.27260        1.29780
C          6.27700       -2.66130        1.18690
C          6.60680       -3.52590        2.23720
C          7.18780       -3.02560        3.40230
C          7.45820       -1.66160        3.51240
C          7.12310       -0.79300        2.46770
H          0.70790        1.12230       -1.99180
H         -1.86420        1.62970       -0.38630
H         -1.68910        0.51970       -1.79330
H         -1.45080        2.21940       -2.00130
H         -0.03540        3.16820        0.15160
H          0.60940        3.42060       -1.46260
H          1.66580        2.79220       -0.15750
H          1.08740       -2.44100        0.00720
H         -1.35390       -1.44820       -1.57040
H         -1.38410       -1.91630        0.15590
H         -0.97480       -3.07830       -1.09810
H          0.93530       -1.14350       -2.78150
H          1.04310       -2.90490       -2.43040
H          2.40900       -1.83550       -1.96540
H          1.06690       -0.42470        2.46950
H          0.35620        2.52950        2.06080
H          2.05430        1.90420        2.23930
H          0.80720        1.70680        3.52550
H         -1.56580        0.91380        1.57000
H         -1.18730        0.35210        3.20330
H         -1.31470       -0.83350        1.91780
H          3.62370        2.66360       -1.06340
H          3.11540        0.42440       -2.99510
H          3.25270        2.26990       -3.28300
H          6.92300        1.62070       -2.40430
H          5.53320        0.59310       -2.89380
H          7.11050        0.31140       -3.60930
H          9.02750        0.29160       -1.46950
H          8.79430       -1.09790       -2.41820
H          8.70900       -1.30660       -0.63900
H          5.22330       -1.76010       -2.08700
H          6.68470       -2.62350       -1.44930
H          6.69370       -2.00890       -3.08380
H          4.56430        2.53240        0.70630
H          5.21220        4.88680        0.66000
H          7.58160        5.51830        0.30980
H          9.29290        3.73620        0.08260
H          8.63640        1.41830        0.09830
H          5.77030       -3.08790        0.33970
H          6.37810       -4.58140        2.16100
H          7.41880       -3.69300        4.22270
H          7.90350       -1.27250        4.41870
H          7.31220        0.26530        2.59280
