66

C          2.32700        0.03400        0.00000
N          1.55000        1.14630        0.01450
C          2.06650        2.52390       -0.02760
C          1.59990        3.24500       -1.30080
C          1.68620        3.30270        1.23380
C          0.27360        0.67910        0.03130
C          0.30320       -0.69670        0.04320
C         -0.87260       -1.45680        0.08420
C         -2.09840       -0.78080        0.07890
C         -2.13710        0.62760        0.04940
C         -0.94420        1.37680        0.03270
N          1.57770       -1.11690        0.02930
C          2.01120       -2.53500        0.13100
C          2.20120       -3.02000        1.57550
C          2.06920       -2.14600        2.66730
C          2.34240       -2.57700        3.97400
C          2.72020       -3.89610        4.21420
C          2.79920       -4.79820        3.15220
C          2.54880       -4.36700        1.83820
Pd         4.47690        0.05800        0.00140
Br         4.51190       -0.19710       -2.46790
C          4.22280        0.30420        2.10130
C          5.17320        0.11840        3.03270
N          6.57670        0.08150        0.00280
C          7.26030       -0.78790       -0.79760
C          8.65700       -0.83800       -0.77560
C          9.37170        0.04200        0.03160
C          8.69020        0.97260        0.81250
C          9.39880        1.88800        1.60220
C          8.72390        2.81030        2.40030
C          7.32200        2.87800        2.38720
C          6.54930        3.79600        3.29540
O          5.32730        3.75910        3.27340
C          7.17600        4.70850        4.32380
C          6.62540        2.00630        1.52280
C          7.27690        0.99460        0.78180
H          3.17860        2.48340       -0.06390
H          0.50020        3.35920       -1.33470
H          1.92050        2.67580       -2.19640
H          2.04870        4.26060       -1.34910
H          0.58890        3.41480        1.33280
H          2.13760        4.31920        1.19580
H          2.07350        2.77920        2.13390
H         -0.85090       -2.53910        0.11030
H         -3.02300       -1.34530        0.09580
H         -3.09240        1.13410        0.04050
H         -0.99900        2.45250        0.01750
H          2.95690       -2.67790       -0.42720
H          1.26040       -3.18650       -0.36870
H          1.77130       -1.12760        2.52790
H          2.27360       -1.87530        4.79340
H          2.94450       -4.21600        5.22640
H          3.07130       -5.82950        3.35590
H          2.62710       -5.09120        1.03620
H          3.22640        0.47120        2.47760
H          6.18640       -0.17030        2.78430
H          4.92490        0.18120        4.08780
H          6.72690       -1.50100       -1.40740
H          9.19090       -1.56460       -1.37390
H         10.45510        0.00080        0.04590
H         10.48150        1.87880        1.62300
H          9.32570        3.46200        3.01220
H          8.27790        4.72410        4.31850
H          6.85980        4.38690        5.34070
H          6.82370        5.74750        4.16010
H          5.56260        2.11850        1.45970
