76

C          1.02400       -0.65300       -0.05500
N         -0.27580       -0.91380       -0.12640
C         -1.08450       -2.09970       -0.41130
C         -2.08660       -1.87420       -1.58070
C         -0.29640       -3.32520       -0.67260
C         -1.05100        0.27880        0.15700
C         -0.08530        1.22840        0.78800
N          1.18280        0.71490        0.35460
C          2.37040        1.54670        0.45970
C          3.41110        0.95230        1.39440
C          2.93660        1.86040       -0.92170
Pd         2.78020       -1.86970       -0.29550
Br         2.75020       -2.41350        2.23660
C          2.80510       -1.41830       -2.39740
C          1.96440       -0.58740       -3.02000
C          4.53640       -3.08650       -0.53600
N          4.49790       -4.46050       -0.49220
C          3.32400       -5.32770       -0.31710
C          2.33330       -5.16420       -1.48220
C          1.11870       -6.10960       -1.32620
C          0.11050       -6.02940       -2.48590
C          5.76550       -4.86770       -0.72520
C          6.55460       -3.76920       -0.90540
C          7.93690       -3.88570       -1.09380
C          8.50280       -5.17040       -1.11400
C          7.68360       -6.30490       -0.97180
C          6.29720       -6.16670       -0.78090
N          5.78950       -2.65570       -0.81490
C          6.33350       -1.28710       -0.76850
C          7.33280       -1.25070        0.38580
C          7.12660       -2.07800        1.51860
C          8.12350       -2.24800        2.47330
C          9.33240       -1.57000        2.34200
C          9.53730       -0.70830        1.25920
C          8.54750       -0.55510        0.27710
H         -1.70080       -2.30780        0.49660
H         -1.56090       -1.66990       -2.53630
H         -2.78430       -1.03480       -1.37510
H         -2.73340       -2.76810       -1.71990
H          0.22060       -3.14750       -1.63140
H         -1.01960       -4.16920       -0.75300
H          0.39180       -3.53090        0.17060
H         -1.92710        0.11020        0.82380
H         -1.38610        0.68880       -0.82270
H         -0.12080        1.12350        1.89470
H         -0.30470        2.27380        0.47590
H          2.07020        2.52900        0.89260
H          3.78770       -0.00780        0.99710
H          2.96090        0.80040        2.39880
H          4.26080        1.66060        1.49460
H          3.34560        0.95390       -1.39420
H          3.75250        2.60780       -0.83830
H          2.13690        2.29340       -1.56410
H          3.53780       -1.94620       -2.99930
H          1.18490       -0.05140       -2.49910
H          2.04420       -0.44820       -4.09300
H          2.83550       -5.11640        0.65720
H          3.62760       -6.39520       -0.31660
H          2.83820       -5.37530       -2.44780
H          2.04010       -4.10810       -1.50150
H          0.60140       -5.89230       -0.36710
H          1.47730       -7.15840       -1.28120
H         -0.30670       -5.02190       -2.65450
H         -0.74750       -6.70300       -2.26920
H          0.58120       -6.33830       -3.43820
H          8.57610       -3.02030       -1.20110
H          9.57020       -5.28540       -1.23510
H          8.12840       -7.29220       -0.99590
H          5.68850       -7.05010       -0.65530
H          5.52260       -0.54050       -0.62770
H          6.85190       -1.07890       -1.73050
H          6.21790       -2.65500        1.63710
H          7.96210       -2.93050        3.29820
H         10.11180       -1.72500        3.07610
H         10.48000       -0.18700        1.16560
H          8.74400        0.07800       -0.57800
