49

C          0.90100       -0.64300       -0.00200
N         -0.20890       -0.94470        0.69920
C         -0.40340       -2.08550        1.59300
C         -1.09910        0.02260        0.44560
C         -0.52910        0.90460       -0.44600
N          0.72490        0.48350       -0.74060
C          1.62590        1.06890       -1.71500
C          1.23980        2.18640       -2.48960
C          2.09400        2.71290       -3.46430
C          3.34670        2.14060       -3.68220
C          3.74540        1.03770       -2.92840
C          2.89080        0.50490       -1.95880
Pd         2.65840       -1.88140       -0.01350
Br         1.76110       -3.13550       -2.09440
C          3.40330       -0.84040        1.71390
C          2.77720        0.17040        2.32160
N          4.37500       -3.09110       -0.02470
C          3.93030       -3.89760        1.14510
C          4.53350       -4.07230       -1.10620
C          5.64490       -2.47310        0.31970
C          6.72040       -3.24370        0.84490
C          7.93110       -2.64940        1.20130
C          8.11350       -1.28070        1.02420
C          7.08950       -0.50820        0.47410
C          5.87070       -1.09830        0.11640
H          0.50960       -2.70940        1.63200
H         -1.25680       -2.69390        1.23680
H         -0.62560       -1.70790        2.61540
H         -2.09510        0.08140        0.86430
H         -1.02380        1.77430       -0.85350
H          0.27580        2.65510       -2.36700
H          1.77970        3.56270       -4.05680
H          4.00450        2.54730       -4.43960
H          4.71500        0.58780       -3.10110
H          3.21940       -0.35460       -1.41400
H          4.34130       -1.15000        2.15580
H          1.83120        0.56410        1.98420
H          3.22780        0.62730        3.19740
H          2.94200       -3.52510        1.48280
H          4.58020       -3.82850        2.04500
H          3.78010       -4.98720        0.95960
H          3.63310       -4.69710       -1.26490
H          5.34090       -4.80560       -0.87930
H          4.80530       -3.55950       -2.05180
H          6.61610       -4.31010        1.00340
H          8.72580       -3.25340        1.62150
H          9.05160       -0.82140        1.30880
H          7.23980        0.55350        0.32980
H          5.10590       -0.47080       -0.30360
