53

C          2.32700        0.03400        0.00000
N          1.54020        1.14440       -0.05670
C          2.03670        2.54390       -0.03980
C          1.65500        3.32450       -1.29940
C          1.55750        3.31090        1.20960
C          0.27060        0.65670       -0.03900
C          0.30460       -0.72190        0.04200
C         -0.87660       -1.48470        0.07060
C         -2.10290       -0.81450        0.02470
C         -2.14370        0.58870       -0.03930
C         -0.95410        1.34170       -0.06940
N          1.58740       -1.15160        0.09090
C          1.98080       -2.62130        0.21910
C          2.71330       -3.27410       -0.97210
C          3.03320       -2.48030       -2.05180
C          3.74630       -2.95230       -3.14970
C          4.12040       -4.28400       -3.22370
C          3.76560       -5.15270       -2.19030
C          3.07100       -4.65970       -1.05590
Pd         4.47690        0.05800        0.00140
Br         4.53450        0.18600       -2.50780
C          4.46460       -0.02670        2.12670
C          3.36930        0.01180        2.87790
O          6.52670        0.08100        0.00280
C          7.26690        0.47280       -1.02600
C          8.59870        0.43920       -0.70060
C          8.66010        0.00470        0.59410
C          7.35780       -0.22080        0.99210
H          3.14860        2.52880        0.01430
H          0.55850        3.36130       -1.44330
H          2.13490        2.87170       -2.18900
H          2.01950        4.37360       -1.21120
H          0.45730        3.43510        1.23250
H          2.00120        4.33250        1.21600
H          1.88260        2.80260        2.14080
H         -0.89080       -2.56250        0.12310
H         -3.02300       -1.38650        0.04300
H         -3.10410        1.08600       -0.06670
H         -1.01740        2.41550       -0.11840
H          1.07780       -3.24920        0.33720
H          2.56240       -2.77170        1.15240
H          2.71640       -1.47190       -2.02870
H          4.00300       -2.27220       -3.94690
H          4.66860       -4.62890       -4.09370
H          4.04240       -6.19920       -2.28690
H          2.82130       -5.37390       -0.27790
H          5.37980        0.00190        2.71010
H          2.37420        0.05810        2.47170
H          3.46070        0.06930        3.95900
H          6.93770        0.81040       -1.98830
H          9.42500        0.71760       -1.34190
H          9.55710       -0.12610        1.18380
H          7.13300       -0.57850        1.97340
