65

C          2.32700        0.03400        0.00000
N          1.50860        1.12280        0.14540
C          1.86750        2.54810        0.25660
C          2.64030        3.07320       -0.97760
C          1.87370        2.98330       -2.31520
C          2.68130        3.62810       -3.45050
C          0.24700        0.63170        0.07860
C          0.29280       -0.72140       -0.13800
C         -0.88260       -1.48580       -0.23030
C         -2.11780       -0.83320       -0.10810
C         -2.17020        0.55580        0.07330
C         -0.98430        1.30720        0.17090
N          1.57930       -1.12260       -0.25020
C          1.93210       -2.54450       -0.60570
C          2.66900       -3.39290        0.42930
C          2.94930       -4.84160       -0.09080
C          1.70910       -5.67180       -0.47500
Pd         4.47690        0.05800        0.00140
Br         4.46180        1.26810        2.29130
C          4.48940       -0.94650       -1.89940
C          3.46980       -0.93650       -2.76230
N          6.57670        0.08150        0.00280
C          7.41320        0.25680        1.05100
N          8.71490        0.18910        0.67240
C          9.90470        0.29330        1.50220
C          9.79780        0.52030        2.89150
C         10.94620        0.60970        3.68530
C         12.21080        0.47680        3.11070
C         12.33220        0.25640        1.74060
C         11.19040        0.16590        0.94090
C          8.68770       -0.02030       -0.66020
C          7.38190       -0.07830       -1.06800
H          2.46410        2.72150        1.16610
H          0.96040        3.17460        0.35350
H          3.60420        2.53090       -1.07400
H          2.86070        4.14820       -0.79060
H          0.89850        3.51350       -2.24200
H          1.67930        1.92120       -2.57290
H          2.84760        4.70840       -3.24530
H          2.13520        3.54240       -4.41480
H          3.66820        3.13050       -3.56240
H         -0.90250       -2.55500       -0.37220
H         -3.03250       -1.41060       -0.16830
H         -3.13140        1.04130        0.15440
H         -1.05500        2.37250        0.31620
H          2.48440       -2.62640       -1.53620
H          1.02120       -3.10550       -0.84880
H          2.06070       -3.45320        1.35430
H          3.64570       -2.91860        0.65960
H          3.47680       -5.39160        0.71570
H          3.62150       -4.81760       -0.97860
H          0.96640       -5.68960        0.34880
H          2.01290       -6.72210       -0.68710
H          1.22620       -5.28950       -1.40000
H          5.39170       -1.41080       -2.26220
H          2.54230       -0.42480       -2.54830
H          3.57420       -1.42010       -3.72850
H          7.07870        0.40890        2.06340
H          8.83930        0.62700        3.37630
H         10.85580        0.78030        4.74990
H         13.09750        0.54380        3.72710
H         13.31240        0.15240        1.29350
H         11.33710       -0.00870       -0.11320
H          9.53840       -0.12640       -1.31410
H          7.07990       -0.21670       -2.09000
