102

C          1.02400       -0.65300       -0.05500
N          0.51960       -0.05660        1.00390
C          0.76360       -0.33640        2.40800
C          2.06060       -0.57220        2.95590
C          3.31870       -0.21130        2.22680
C          2.19010       -1.07550        4.26850
C          1.06080       -1.31750        5.05770
C          1.12750       -1.97020        6.40270
C         -0.18620       -0.96370        4.58540
C         -0.36130       -0.46900        3.29680
C         -1.79600       -0.17780        2.93860
C         -0.51160        0.88260        0.56420
C         -0.26000        1.07460       -0.89640
N          0.34360       -0.16320       -1.26510
C         -0.09870       -0.98030       -2.40110
C          0.86910       -1.65670       -3.18900
C          2.30740       -1.34330       -3.04710
C          0.51100       -2.53240       -4.22090
C         -0.82300       -2.73380       -4.54970
C         -1.22260       -3.67450       -5.65010
C         -1.80180       -2.02420       -3.86660
C         -1.48550       -1.14270       -2.81000
C         -2.69230       -0.44950       -2.20700
Pd         2.78020       -1.86970       -0.29550
Br         4.14910        0.23300       -0.93790
C          1.64390       -3.61530        0.23780
C          0.51090       -3.54120        0.93900
P          4.78960       -3.26190       -0.57060
C          6.47570       -2.40320       -1.10970
C          6.88910       -1.34360       -0.04780
C          7.80830       -3.16700       -1.37460
C          6.22740       -1.72880       -2.49790
C          5.02120       -4.27750        1.11700
C          3.82570       -5.12520        1.55990
C          6.19130       -5.29230        1.06630
C          5.35330       -3.37760        2.34150
C          4.72500       -4.56880       -1.89550
C          3.71620       -4.72500       -2.87070
C          3.93320       -5.55010       -4.01330
C          5.15880       -6.23640       -4.20100
N          5.48250       -6.96800       -5.40430
C          6.86260       -7.07390       -5.87150
C          4.47060       -7.58620       -6.21930
C          6.09660       -6.15470       -3.17510
C          5.87040       -5.35990       -2.06020
H          3.10960        0.59090        1.50020
H          3.77880       -1.06530        1.72260
H          4.04860        0.24830        2.93500
H          3.17220       -1.29270        4.67440
H          2.16700       -2.20500        6.70500
H          0.56270       -2.92800        6.32820
H          0.63760       -1.34010        7.17490
H         -1.04490       -1.11240        5.22950
H         -2.50680       -0.35220        3.76970
H         -2.10820       -0.85440        2.12070
H         -1.91690        0.90140        2.69760
H         -0.45320        1.87480        1.06810
H         -1.50830        0.42970        0.59020
H          0.52770        1.84620       -1.03290
H         -1.11540        1.43780       -1.47670
H          2.36220       -0.40990       -2.50310
H          2.74710       -1.08610       -4.03240
H          2.88630       -2.13390       -2.56530
H          1.28310       -3.03090       -4.79620
H         -0.34220       -4.18250       -6.09700
H         -1.75930       -3.12260       -6.45110
H         -1.89920       -4.45110       -5.23400
H         -2.83190       -2.16790       -4.17820
H         -3.64990       -0.81530       -2.64430
H         -2.71130        0.62410       -2.47640
H         -2.75670       -0.61620       -1.11720
H          1.99310       -4.58910       -0.05630
H          0.12640       -2.60310        1.29450
H         -0.03010       -4.43630        1.21830
H          7.38150       -1.82200        0.81220
H          6.08070       -0.73660        0.37230
H          7.65960       -0.64790       -0.44900
H          8.20130       -3.71520       -0.51090
H          8.61440       -2.43730       -1.62030
H          7.79320       -3.79180       -2.28660
H          5.33370       -1.12380       -2.61830
H          6.10260       -2.49670       -3.28760
H          7.08180       -1.07600       -2.79030
H          3.52430       -5.82660        0.75580
H          3.01870       -4.48810        1.95120
H          4.07640       -5.74920        2.44660
H          5.98030       -6.13930        0.38810
H          6.34590       -5.78920        2.05010
H          7.15320       -4.81270        0.86040
H          4.52110       -2.73230        2.63720
H          6.27150       -2.79110        2.23240
H          5.53720       -3.99870        3.24830
H          2.79290       -4.18240       -2.81800
H          3.16420       -5.57360       -4.76750
H          7.58820       -6.48160       -5.28240
H          6.94110       -6.67510       -6.90820
H          7.18360       -8.13670       -5.87700
H          3.45880       -7.50120       -5.78420
H          4.70350       -8.67050       -6.30420
H          4.48010       -7.14140       -7.23640
H          7.05050       -6.66690       -3.22280
H          6.69300       -5.33270       -1.38370
