60

P          1.05700        0.08190       -0.00690
C          0.05770       -1.53360       -0.64830
C         -1.49600       -1.57050       -0.71190
C          0.45900       -1.93590       -2.10260
C          0.42290       -2.75380        0.22300
C          0.71970        0.04670        1.95430
C          1.45680       -1.08500        2.71280
C          1.16860        1.32710        2.70700
C         -0.78410       -0.04930        2.32830
C          0.30710        1.51830       -1.10310
C         -1.22440        1.65740       -0.93410
C          0.87840        2.87740       -0.67750
C          0.57530        1.43220       -2.62800
Pd         3.51700        0.08190       -0.00690
Br         3.51700        2.42620        1.09410
C          3.51700       -1.86420       -0.92090
C          3.67990       -3.08060       -0.39190
N          5.61700        0.08190       -0.00690
C          6.12470        1.36100       -0.56490
C          6.03570        0.19710        1.40980
C          6.27840       -1.07760       -0.63060
H         -1.92670       -1.04100       -1.56660
H         -2.03300       -1.31140        0.20450
H         -1.82290       -2.61260       -0.94380
H          0.06480       -1.28660       -2.87930
H          0.03060       -2.92520       -2.37970
H          1.51360       -2.03630       -2.28970
H         -0.19000       -2.78710        1.13830
H          1.47730       -2.77340        0.48820
H          0.19310       -3.72240       -0.27540
H          2.54140       -1.05050        2.49740
H          1.09610       -2.09990        2.55740
H          1.31980       -0.96380        3.81310
H          2.24880        1.32490        2.89190
H          0.80310        1.33540        3.75890
H          0.77850        2.25890        2.27690
H         -1.23660       -0.99640        2.04110
H         -1.37220        0.81250        1.97690
H         -0.92470       -0.03410        3.43380
H         -1.55360        1.65770        0.10980
H         -1.80650        0.92210       -1.48710
H         -1.60700        2.60430       -1.37450
H          0.68480        3.09760        0.37940
H          0.39640        3.70730       -1.24130
H          1.94930        2.93590       -0.92680
H         -0.03050        0.67260       -3.12520
H          1.64980        1.31560       -2.86010
H          0.20100        2.35890       -3.13010
H          3.50820       -1.79410       -2.00100
H          3.78550       -3.26510        0.65460
H          3.71360       -3.92540       -1.09730
H          5.83240        2.27140       -0.01610
H          5.75890        1.47050       -1.60770
H          7.23840        1.37380       -0.60270
H          5.63140        1.08270        1.93130
H          7.14510        0.22300        1.51950
H          5.67150       -0.68480        1.98680
H          5.98980       -1.15830       -1.69930
H          6.03250       -2.01300       -0.09040
H          7.38650       -0.97780       -0.58820
