25

N         -0.65900       -1.22800       -0.05100
C         -1.23460       -0.27880        0.73560
F         -2.44230       -0.51850        1.30050
C         -0.66440        0.99620        0.81760
C          0.55690        1.24140        0.18600
C          1.16350        0.23080       -0.56410
C          0.50280       -0.98850       -0.71810
Pd        -1.57560       -3.10440       -0.27260
Br        -1.03990       -3.65810        2.20020
C         -2.02040       -2.64470       -2.32520
C         -1.90870       -1.43100       -2.86820
C         -2.51410       -5.02540       -0.49940
N         -2.69660       -5.89310        0.51200
C         -3.31070       -6.94170       -0.05820
C         -3.48050       -6.67330       -1.39730
O         -2.98120       -5.48790       -1.63360
H         -1.16450        1.79250        1.35600
H          1.03360        2.21140        0.27220
H          2.13140        0.39290       -1.02270
H          0.96460       -1.78500       -1.28820
H         -2.34320       -3.45500       -2.96850
H         -1.58550       -0.57140       -2.30030
H         -2.13810       -1.29160       -3.92000
H         -3.60980       -7.84100        0.46600
H         -3.94390       -7.31820       -2.13580
