31

P          1.00070        0.04180       -0.09080
O         -0.37220       -0.85890       -0.56290
C         -0.06410       -1.40880       -1.84100
O          0.64570        0.10150        1.58000
C          0.71610       -1.18130        2.14910
O          0.67610        1.35350       -1.15620
C         -0.68390        1.74410       -1.00590
Pd         3.46070        0.04180       -0.09080
Br         3.31390        2.21200        1.11580
C          3.44880       -1.76650       -1.09930
C          3.41670       -2.91430       -0.42580
O          5.51070        0.04180       -0.09080
C          6.29570       -0.88150       -0.61280
N          7.59630       -0.58620       -0.42860
C          7.57710        0.57470        0.24660
C          6.26420        0.96710        0.45290
H         -0.56290       -2.38700       -1.97150
H          1.01560       -1.63300       -2.01720
H         -0.39080       -0.72600       -2.65450
H          0.00700       -1.20600        3.00440
H          1.73750       -1.36410        2.53800
H          0.38960       -2.00400        1.47630
H         -0.84390        2.71710       -1.50220
H         -0.98780        1.85730        0.05970
H         -1.37870        1.04640       -1.52510
H          3.48340       -1.77280       -2.18390
H          3.38990       -2.90880        0.65800
H          3.42260       -3.86040       -0.95820
H          5.97100       -1.76210       -1.14080
H          8.46660        1.09960        0.58160
H          5.96460        1.84520        0.97420
