32

N         -1.38920       -0.16650       -0.04400
C         -0.76460        0.95670        0.43690
C          0.62260        1.07120        0.52120
C          1.41820        0.01960        0.10500
F          2.76990        0.13600        0.12910
C          0.81100       -1.15560       -0.32250
C         -0.59320       -1.24450       -0.36070
Pd        -3.47560       -0.20170       -0.28210
Br        -3.38830       -2.78120       -0.06550
C         -3.54810        1.93950       -0.46180
C         -2.59280        2.77650       -0.89550
N         -5.59340       -0.32780       -0.53640
C         -6.22880       -1.54960       -0.66580
C         -7.60040       -1.67580       -0.95290
C         -8.23590       -3.01790       -1.16280
C         -8.37450       -0.53490       -1.08230
C         -7.77770        0.69460       -0.93030
C         -6.41320        0.77930       -0.66790
H         -1.32700        1.77950        0.82870
H          1.07230        1.98080        0.90310
H          1.42870       -1.98460       -0.64470
H         -0.99300       -2.15910       -0.75110
H         -4.41230        2.51140       -0.25440
H         -1.63190        2.45380       -1.26560
H         -2.79630        3.84480       -0.93860
H         -5.72850       -2.47730       -0.61510
H         -7.51190       -3.84690       -1.01720
H         -8.61640       -3.07210       -2.20560
H         -9.08110       -3.15290       -0.45720
H         -9.43080       -0.59560       -1.31100
H         -8.36390        1.59890       -1.03990
H         -6.11160        1.77510       -0.62400
