40

N         -1.43700       -0.19020       -0.30660
C         -0.78390        0.77470       -1.00740
C          0.60950        0.87910       -0.96740
C          1.34820       -0.10120       -0.30640
Cl         3.10140       -0.03550       -0.29650
C          0.67890       -1.13560        0.34740
C         -0.71600       -1.15030        0.37060
Pd        -3.46340       -0.22350       -0.29340
Br        -3.32880       -1.68870       -2.34970
C         -3.61020        1.02090        1.48080
C         -2.68130        1.93700        1.80290
P         -5.89890       -0.15610       -0.38280
C         -6.87240        1.25800       -0.94360
C         -6.11820       -0.88810       -2.07180
C         -6.78340       -1.05170        0.96570
C         -6.40060       -0.41690        2.35180
C         -8.28470       -1.10410        0.54770
C         -6.33020       -2.51570        1.09280
H         -1.35190        1.55960       -1.48970
H          1.11540        1.71790       -1.43610
H          1.23530       -1.91740        0.84200
H         -1.23750       -1.94690        0.88180
H         -4.37790        1.07630        2.19260
H         -1.82340        2.16720        1.20780
H         -2.79930        2.54840        2.69320
H         -6.37770        1.72880       -1.82580
H         -6.75900        1.99710       -0.12060
H         -7.94140        1.07170       -1.12660
H         -5.66250       -0.34170       -2.91340
H         -7.20820       -1.01550       -2.27470
H         -5.71930       -1.92730       -2.05600
H         -6.35770        0.67990        2.45630
H         -5.34450       -0.65360        2.60530
H         -7.04310       -0.81540        3.16480
H         -8.73430       -0.17220        0.16430
H         -8.91760       -1.49800        1.36630
H         -8.39560       -1.75870       -0.34240
H         -5.25050       -2.57790        1.34490
H         -6.50880       -3.08170        0.16010
H         -6.90750       -3.00830        1.90760
