40

N         -0.66230       -1.21560       -0.05710
C          0.70170       -1.10550       -0.03200
F          1.48530       -2.19170       -0.24570
C          1.29750        0.14010        0.17830
C          0.48900        1.25690        0.38390
C         -0.89890        1.12300        0.33770
C         -1.45850       -0.13440        0.09200
Pd        -1.58050       -3.11180       -0.27590
Br        -0.42260       -3.91320        1.90160
C         -2.53150       -2.41740       -2.07170
C         -2.43550       -1.21630       -2.64040
N         -2.49280       -4.98050       -0.49330
C         -3.79940       -5.02590       -0.89810
C         -4.46830       -6.24050       -1.04080
C         -3.81090       -7.43260       -0.79610
C         -2.46870       -7.40750       -0.42690
C         -1.76500       -8.60820       -0.22120
C         -0.40660       -8.58760        0.10830
C          0.28560       -7.36860        0.18770
C          1.74200       -7.27250        0.56020
O          2.26590       -6.17110        0.60700
C          2.59980       -8.44360        0.94640
C         -0.42610       -6.17940       -0.06820
C         -1.80110       -6.16350       -0.29320
H          2.37570        0.23540        0.19200
H          0.93750        2.22320        0.57520
H         -1.53520        1.98240        0.50470
H         -2.53390       -0.24980        0.08330
H         -3.13720       -3.12570       -2.62920
H         -1.82320       -0.41990       -2.25930
H         -2.96470       -1.01550       -3.56630
H         -4.35750       -4.10520       -1.04760
H         -5.51620       -6.25160       -1.34470
H         -4.33820       -8.37260       -0.91600
H         -2.26650       -9.56450       -0.31230
H          0.07540       -9.53540        0.28060
H          2.10700       -9.42370        0.83520
H          2.91410       -8.33070        2.00670
H          3.50920       -8.44970        0.30760
H          0.12630       -5.26820       -0.10380
