40

N         -0.65900       -1.22800       -0.05100
C         -1.04020       -0.14720       -0.79370
C         -2.08990       -0.28490       -1.84910
C         -0.35360        1.07000       -0.65570
C          0.71610        1.15920        0.23570
C          1.11660        0.03090        0.94860
C          0.42920       -1.16870        0.76540
Pd        -1.57560       -3.10440       -0.27260
Br         0.23300       -3.78420       -1.99740
C         -3.07700       -2.54000        1.15920
C         -3.07400       -1.37780        1.81560
N         -2.49230       -4.98070       -0.49410
C         -1.73710       -6.11620       -0.67450
N         -0.37880       -6.13360       -0.17080
C         -0.01440       -5.22680        0.92310
C          0.54720       -7.23650       -0.36930
C         -2.38110       -7.34070       -0.95000
C         -3.77140       -7.39640       -1.01880
C         -4.51210       -6.25910       -0.74200
C         -3.85670       -5.06570       -0.44160
H         -2.48220       -1.32200       -1.88760
H         -1.61560       -0.07220       -2.83620
H         -2.91530        0.43350       -1.68700
H         -0.62510        1.93210       -1.25240
H          1.25320        2.09180        0.35390
H          1.95500        0.08150        1.63160
H          0.73190       -2.05120        1.31310
H         -3.88740       -3.20730        1.40800
H         -2.31400       -0.62650        1.66740
H         -3.86370       -1.16610        2.53060
H         -0.81340       -4.51970        1.19920
H          0.91510       -4.66220        0.68290
H          0.16850       -5.81420        1.84510
H          0.23890       -7.92720       -1.17320
H          0.64680       -7.81150        0.57680
H          1.54960       -6.83740       -0.63510
H         -1.85530       -8.27930       -1.03500
H         -4.27260       -8.33320       -1.22890
H         -5.59510       -6.29210       -0.77490
H         -4.47020       -4.19070       -0.31880
