41

N         -0.65900       -1.22800       -0.05100
C         -1.22780       -0.11510       -0.60590
C         -2.56870       -0.18850       -1.26680
C         -0.56660        1.12020       -0.53600
C          0.67750        1.20040        0.08650
C          1.25940        0.05240        0.62510
C          0.57300       -1.15840        0.53450
Pd        -1.57560       -3.10440       -0.27260
Br        -1.40950       -2.88140       -2.84760
C         -1.71350       -3.28940        1.86500
C         -1.21670       -2.42090        2.75530
N         -2.49230       -4.98070       -0.49410
C         -3.01910       -5.59680        0.73330
C         -3.64630       -4.64730       -1.35700
C         -1.70330       -6.01870       -1.11910
C         -0.30080       -5.98870       -1.04230
C          0.45100       -7.11630       -1.41840
C         -0.18190       -8.28100       -1.87180
C         -1.56890       -8.31580       -1.97520
C         -2.32230       -7.20910       -1.59810
H         -2.99140       -1.20970       -1.19860
H         -2.47560        0.09980       -2.33570
H         -3.27420        0.50470       -0.76360
H         -1.01410        2.01120       -0.96150
H          1.19580        2.14840        0.14530
H          2.23040        0.09970        1.09220
H          1.03410       -2.06320        0.92110
H         -2.22910       -4.06370        2.39050
H         -0.70570       -1.51360        2.51090
H         -1.36190       -2.59690        3.81770
H         -3.73980       -4.92720        1.24830
H         -2.18030       -5.90480        1.40110
H         -3.59150       -6.53140        0.54370
H         -3.68750       -3.55360       -1.50820
H         -4.63400       -4.90460       -0.90210
H         -3.63270       -5.12170       -2.36160
H          0.20030       -5.12480       -0.62920
H          1.52810       -7.10720       -1.31610
H          0.39250       -9.15520       -2.12900
H         -2.07140       -9.21900       -2.30270
H         -3.39890       -7.30330       -1.63240
