36

P          1.06880        0.03860       -0.06150
O         -0.34170       -0.12840        0.89450
C         -0.05040       -1.15470        1.83380
O          0.74070        1.62210       -0.61010
C          0.90790        2.53430        0.44620
O          0.76050       -1.36480       -1.00000
C         -0.57760       -1.31490       -1.47340
Pd         3.52880        0.03860       -0.06150
Br         3.31800       -0.01670       -2.55260
C          3.46370        0.09960        2.01680
C          3.47050        1.25860        2.66480
N          5.62880        0.03860       -0.06150
C          6.09410        1.11310       -0.96930
C          6.28690        0.09160        1.25350
C          6.03360       -1.17050       -0.81730
H         -0.59070       -0.96160        2.77980
H          1.02450       -1.23730        2.14690
H         -0.36990       -2.14700        1.44460
H          0.34290        3.45490        0.18830
H          1.97530        2.81250        0.53730
H          0.48180        2.18530        1.41130
H         -0.71220       -2.05350       -2.28600
H         -0.85420       -0.31970       -1.88800
H         -1.30470       -1.61270       -0.68260
H          3.42770       -0.83340        2.57310
H          3.51830        2.19420        2.11490
H          3.43800        1.28400        3.75020
H          5.76390        2.09340       -0.56500
H          5.69320        1.04410       -1.99780
H          7.20620        1.13990       -1.03760
H          6.04900        1.04480        1.76790
H          7.39330        0.03540        1.14680
H          5.96760       -0.76590        1.88280
H          5.59490       -1.23000       -1.83140
H          5.67970       -2.07240       -0.27370
H          7.14130       -1.25120       -0.91230
