52

N         -1.39190       -0.12300       -0.06320
C         -0.70560       -1.13180        0.68170
C          0.62640       -0.91560        1.06790
F          1.18910       -1.68790        1.99310
C          1.31370        0.04620        0.51760
C          0.72730        0.85300       -0.46430
C         -0.67650        0.83970       -0.63580
Pd        -3.45230       -0.20330       -0.28870
Br        -3.20350       -0.33090       -2.84760
C         -3.72510       -0.08660        1.84840
C         -2.76140       -0.60800        2.66830
P         -5.91900       -0.31470       -0.54550
C         -6.59000        1.38650       -0.71420
C         -6.17280        2.22360       -1.78290
C         -6.45560        3.59690       -1.73750
C         -7.32070        4.05510       -0.87610
C         -7.97400        3.17570       -0.00500
C         -7.48140        1.86090        0.16350
C         -6.32650       -1.27130       -2.04910
C         -5.91290       -2.62590       -2.18000
C         -5.80790       -3.19590       -3.45730
C         -6.34110       -2.59450       -4.48390
C         -7.02670       -1.38680       -4.30930
C         -6.87750       -0.66410       -3.10310
C         -6.65850       -1.11300        0.91760
C         -7.98800       -1.25790        0.94380
C         -8.57570       -1.99440        2.00580
C         -7.81270       -2.29290        3.14440
C         -6.51590       -2.14370        3.11890
O         -5.82940       -2.40510        4.15060
N         -5.89090       -1.69530        1.94950
H         -1.18590       -2.00940        0.94620
H          2.29150        0.21010        0.80710
H          1.31790        1.45730       -1.05960
H         -1.14600        1.57450       -1.19010
H         -4.56890        0.32800        2.25430
H         -1.91190       -1.03760        2.26650
H         -2.87980       -0.56650        3.69420
H         -5.66170        1.82420       -2.58770
H         -5.98110        4.24630       -2.38530
H         -7.52290        5.06710       -0.83910
H         -8.81140        3.48740        0.51460
H         -7.80480        1.27420        0.95010
H         -5.69080       -3.18700       -1.34460
H         -5.30990       -4.09130       -3.58690
H         -6.25730       -3.01170       -5.42490
H         -7.63740       -1.02410       -5.06020
H         -7.18920        0.31880       -3.03610
H         -8.57530       -0.84650        0.20220
H         -9.55920       -2.30700        1.94210
H         -8.27380       -2.63150        4.00420
H         -4.91180       -1.78580        1.84820
