32

N         -1.45440       -0.08300       -0.05190
C         -0.74750        0.92460       -0.64920
C          0.65650        0.93560       -0.59400
C          1.32440       -0.05830        0.12380
Cl         3.08160       -0.09060        0.18150
C          0.58580       -1.04040        0.78270
C         -0.80940       -1.05050        0.66020
Pd        -3.47560       -0.20170       -0.28210
Br        -3.76990        1.26700        1.83080
C         -3.23140       -1.42100       -2.03600
C         -2.04790       -1.78200       -2.53650
N         -5.51110       -0.24330       -0.51810
C         -6.22380        0.90210       -0.30980
C         -7.61710        0.91080       -0.39810
C         -8.30200       -0.29040       -0.59650
C         -9.80410       -0.32520       -0.53380
C         -7.56310       -1.46180       -0.81340
C         -6.15930       -1.40690       -0.82340
H         -1.25990        1.68220       -1.22590
H          1.22520        1.69640       -1.11620
H          1.09140       -1.79950        1.36760
H         -1.38050       -1.81950        1.15930
H         -4.11760       -1.75950       -2.55900
H         -1.11360       -1.48010       -2.08780
H         -2.00730       -2.39600       -3.43070
H         -5.70170        1.83240       -0.14200
H         -8.15390        1.84300       -0.27820
H        -10.22890        0.68920       -0.36680
H        -10.11070       -0.95610        0.32880
H        -10.24000       -0.74460       -1.46250
H         -8.07060       -2.41110       -0.94700
H         -5.60390       -2.32760       -0.93770
