30

N         -0.65900       -1.22800       -0.05100
C         -1.37160       -0.07660       -0.21210
Cl        -3.06400       -0.15540       -0.66940
C         -0.71930        1.16150       -0.15940
C          0.64690        1.20330        0.12770
C          1.35380        0.01440        0.30330
C          0.68540       -1.20140        0.15650
Pd        -1.57560       -3.10440       -0.27260
Br        -0.41660       -3.39920       -2.56990
C         -2.53770       -2.85960        1.63450
C         -2.59020       -1.72420        2.33530
N         -2.49230       -4.98070       -0.49410
C         -3.50470       -4.49690       -1.42830
N         -3.14590       -5.53950        0.57280
C         -2.94320       -6.80690        0.60740
C         -2.11550       -7.19260       -0.44990
C         -1.82610       -6.03530       -1.15090
H         -1.25920        2.07980       -0.35090
H          1.16160        2.15270        0.19810
H          2.41000        0.03220        0.54070
H          1.22140       -2.13220        0.28980
H         -3.00210       -3.71580        2.10250
H         -2.14260       -0.80580        2.00650
H         -3.08710       -1.70880        3.29920
H         -4.09230       -3.67920       -0.95970
H         -4.21660       -5.30940       -1.71320
H         -3.05770       -4.10210       -2.36150
H         -3.35060       -7.46060        1.36210
H         -1.76130       -8.18980       -0.67950
H         -1.19800       -5.97650       -2.02630
