32

N         -1.44600       -0.18330        0.02570
C         -0.55140       -0.16350       -0.99970
C          0.82450       -0.27250       -0.74810
F          1.70350       -0.40290       -1.77140
C          1.28880       -0.26670        0.56580
C          0.37300       -0.19420        1.61010
C         -0.99680       -0.22300        1.32190
Pd        -3.47560       -0.20170       -0.28210
Br        -3.56310       -2.23640        1.31810
C         -3.40310        1.48730       -1.61040
C         -2.32060        2.19870       -1.94660
N         -5.53690       -0.30690       -0.55250
C         -6.18100       -1.50160       -0.37690
C         -7.53660       -1.63630       -0.73560
C         -8.27390       -0.51260       -1.11730
C         -9.71300       -0.61220       -1.51680
C         -7.63940        0.72290       -1.14950
C         -6.27020        0.79110       -0.92440
H         -0.90320       -0.19590       -2.02250
H          2.35230       -0.31940        0.77590
H          0.72370       -0.12690        2.63360
H         -1.70320       -0.14200        2.13640
H         -4.27890        1.85510       -2.10630
H         -1.33560        2.03370       -1.55710
H         -2.42250        3.02860       -2.64070
H         -5.65570       -2.40390       -0.16180
H         -7.99770       -2.61770       -0.72900
H        -10.04130       -1.67020       -1.57050
H         -9.83420       -0.16680       -2.52900
H        -10.35540       -0.06070       -0.80060
H         -8.18940        1.62840       -1.37660
H         -5.85140        1.77720       -0.92670
