37

P          1.04100       -0.07290        0.05480
O         -0.31120       -1.05100       -0.30760
C          0.00270       -1.73480       -1.52400
O          0.65410        0.27540        1.68310
C          0.72740       -0.89440        2.46480
O          0.69050        1.03080       -1.21840
C         -0.66840        1.44640       -1.11120
Pd         3.50100       -0.07290        0.05480
Br         2.96430        2.36120        0.30170
C          3.38530       -2.12860        0.43400
C          3.08570       -3.08010       -0.44660
N          5.60100       -0.07290        0.05480
C          6.41260        1.05210       -0.03730
C          5.90510        2.44820       -0.24560
C          7.81350        0.94760       -0.02610
C          8.42390       -0.28840        0.04650
C          7.63570       -1.42780        0.10060
C          6.24200       -1.29400        0.09760
H         -0.20940       -2.81780       -1.42780
H          1.05370       -1.67270       -1.86910
H         -0.59650       -1.31830       -2.35870
H          0.20010       -0.68380        3.41690
H          1.78290       -1.12550        2.70480
H          0.19390       -1.75390        2.01110
H         -0.83810        2.32150       -1.76510
H         -0.94950        1.73530       -0.07530
H         -1.36900        0.67160       -1.49220
H          3.60180       -2.42610        1.45600
H          2.87160       -2.85840       -1.47840
H          3.06170       -4.11510       -0.10930
H          5.11320        2.43550       -1.00470
H          6.66320        3.05750       -0.78040
H          5.71460        2.95440        0.72130
H          8.44770        1.82310       -0.08680
H          9.50360       -0.37140        0.03700
H          8.09840       -2.40020        0.10880
H          5.71600       -2.22310        0.12200
