89

N         -1.39000       -0.11200       -0.05400
C         -0.69750        0.98340       -0.48090
C          0.68640        1.06070       -0.44740
C          1.42520       -0.00910        0.05630
O          2.78520       -0.01530        0.05590
C          3.58640        0.97030       -0.49450
C          0.72460       -1.10390        0.57440
C         -0.68420       -1.12770        0.53520
Pd        -3.47560       -0.20170       -0.28210
Br        -3.63880       -1.72240        1.80820
C         -3.34020        1.06060       -2.01720
C         -2.35930        1.45630       -2.85440
C         -5.61100       -0.29360       -0.51560
N         -6.27830        0.77460       -1.02230
C         -5.97160        2.21700       -1.41570
C         -6.80530        2.82150       -2.48270
C         -7.69810        2.17440       -3.60690
C         -7.30330        2.75370       -5.00590
C         -7.61760        0.65600       -3.85070
C         -6.75550        4.22610       -2.66990
C         -5.86480        5.03810       -2.05570
C         -4.98190        4.52440       -1.16120
C         -5.01140        3.15840       -0.74670
C         -4.12790        2.97760        0.52870
C         -2.81030        3.85270        0.75080
C         -5.05860        3.44070        1.64730
C         -7.69020        0.57620       -0.75620
C         -7.83380       -0.89640       -0.68980
N         -6.67920       -1.24620        0.03630
C         -6.61100       -2.61710        0.58740
C         -7.06090       -3.84270       -0.13960
C         -8.08380       -4.00000       -1.31920
C         -7.48130       -4.46210       -2.64960
C         -9.23400       -4.99860       -0.94120
C         -6.61430       -5.08750        0.33230
C         -5.91850       -5.20920        1.50280
C         -5.78650       -4.11310        2.33120
C         -6.20000       -2.80800        1.96570
C         -6.14690       -1.66350        3.10000
C         -5.25420       -2.05610        4.33570
C         -5.90870       -0.15110        2.72560
H         -1.21200        1.85110       -0.81660
H          1.16080        1.95810       -0.82180
H          4.65180        0.67690       -0.40510
H          3.43080        1.93730        0.02940
H          3.35550        1.08590       -1.57460
H          1.26550       -1.94740        0.98430
H         -1.17700       -2.01240        0.89890
H         -4.22930        1.38470       -2.45260
H         -1.31390        1.20750       -2.80540
H         -2.62600        2.07790       -3.71030
H         -8.76420        2.45220       -3.43880
H         -6.22460        2.57440       -5.19820
H         -7.49830        3.83090       -5.14150
H         -7.90390        2.30760       -5.82500
H         -6.56310        0.31810       -3.94040
H         -8.14820        0.38440       -4.78980
H         -8.19850        0.06820       -3.15570
H         -7.41290        4.74410       -3.34730
H         -5.85740        6.09710       -2.28050
H         -4.33290        5.26970       -0.74850
H         -3.87010        1.91280        0.66340
H         -2.94080        4.95790        0.70320
H         -1.94520        3.63110        0.10380
H         -2.44520        3.72660        1.79670
H         -5.21750        4.54430        1.56210
H         -4.61700        3.23040        2.63950
H         -6.04370        2.94430        1.55870
H         -8.43380        1.10080       -1.37660
H         -7.90020        0.95140        0.27130
H         -7.72130       -1.29830       -1.72100
H         -8.78530       -1.21490       -0.22050
H         -8.64360       -3.08770       -1.50770
H         -6.98380       -5.44950       -2.55270
H         -6.76370       -3.70630       -3.01850
H         -8.29220       -4.56780       -3.40960
H         -8.89720       -6.05760       -0.88070
H        -10.04480       -4.99350       -1.70510
H         -9.69730       -4.73680        0.03430
H         -6.83110       -6.01260       -0.19370
H         -5.57490       -6.18690        1.82050
H         -5.34530       -4.33920        3.28400
H         -7.17640       -1.58430        3.49430
H         -4.30060       -2.56610        4.08050
H         -5.76010       -2.79390        4.98280
H         -4.91360       -1.17210        4.91290
H         -5.71280       -0.13800        1.71710
H         -4.92720        0.32360        2.96580
H         -6.78680        0.51980        2.65230
