51

N          1.14300       -0.69700        0.08900
C          0.34180       -0.32830        1.14760
C          0.71310       -0.60190        2.57120
C         -0.83590        0.40390        0.92980
C         -1.19940        0.76980       -0.35630
C         -0.41830        0.36780       -1.42490
C          0.74700       -0.38250       -1.20210
C          1.44760       -0.93140       -2.42650
Pd         2.95390       -1.70510        0.42730
Br         1.87790       -3.52930        1.75210
C          3.71410       -0.06910       -0.62530
C          4.75370       -0.11860       -1.42220
P          5.07520       -2.88600        0.82350
C          5.58030       -4.13010        2.05680
C          5.11120       -4.22630       -0.42220
C          6.22720       -4.24660       -1.28850
C          6.36840       -5.18800       -2.29720
C          5.40810       -6.17370       -2.44820
C          4.31110       -6.21620       -1.57720
C          4.15590       -5.24510       -0.56670
C          6.44740       -1.62760        0.86490
C          6.84450       -1.06120        2.09770
C          7.87850       -0.10830        2.15320
C          8.52050        0.31540        0.98470
C          8.17380       -0.22820       -0.22890
C          7.16970       -1.20220       -0.28200
H          1.73150       -1.01640        2.66010
H         -0.03460       -1.29050        3.02260
H          0.70540        0.34980        3.14480
H         -1.45670        0.72040        1.76000
H         -2.09640        1.35170       -0.52910
H         -0.73560        0.62520       -2.42850
H          0.92870       -0.63040       -3.36090
H          1.41720       -2.03990       -2.37680
H          2.48030       -0.61450       -2.58260
H          3.14900        0.85610       -0.65490
H          5.11250       -1.10190       -1.62010
H          5.07580        0.73940       -2.00640
H          4.81830       -4.93260        2.15180
H          5.54200       -3.59530        3.03680
H          6.60220       -4.52080        1.92060
H          7.02940       -3.55670       -1.20280
H          7.23480       -5.14680       -2.94860
H          5.53050       -6.90830       -3.23380
H          3.58490       -7.00540       -1.69550
H          3.30430       -5.30330        0.08940
H          6.36750       -1.35440        3.02160
H          8.18510        0.31620        3.10000
H          9.30890        1.05990        1.01920
H          8.64820        0.08150       -1.14230
H          6.99710       -1.55890       -1.27840
