34

N         -0.32800       -1.08200        0.00300
C         -0.88010       -0.00290        0.60050
O         -0.19250        1.08980        0.35180
C          0.82350        0.75280       -0.40630
C          0.75010       -0.59960       -0.64200
Pd        -0.93010       -3.09380        0.01630
Br         0.31890       -3.48240       -2.21910
C         -1.96680       -2.77120        1.87200
C         -2.41230       -3.72470        2.69420
N         -1.53210       -5.10560        0.02970
C         -0.62540       -6.15540       -0.03280
N          0.80320       -5.95510        0.27700
C          1.38230       -4.68430        0.69810
C          1.75270       -7.05380        0.47530
C         -1.15180       -7.46770       -0.13470
C         -2.52860       -7.67690       -0.16220
C         -3.39860       -6.60450       -0.03510
C         -2.87770       -5.32220        0.08750
H         -1.78520        0.00670        1.18070
H          1.58140        1.43370       -0.76990
H          1.45250       -1.17870       -1.22080
H         -2.16110       -1.76580        2.19740
H         -2.28340       -4.77800        2.49970
H         -2.93620       -3.43750        3.60220
H          0.68880       -3.86730        0.77570
H          2.21360       -4.39880        0.02060
H          1.78520       -4.76770        1.73260
H          1.37710       -8.06470        0.29320
H          2.09210       -7.05740        1.53850
H          2.64370       -6.90310       -0.16640
H         -0.55910       -8.35940       -0.16040
H         -2.91980       -8.68240       -0.24880
H         -4.46950       -6.76660       -0.04860
H         -3.55520       -4.47990        0.13890
