75

P          0.98590        0.07370        0.06610
C          0.06550       -0.69110        1.53600
C         -1.43820       -0.56310        1.84110
C         -1.62600       -1.59880        2.95290
C         -0.87940       -2.79180        2.41200
C          0.36070       -2.20850        1.73440
C          0.48250        1.85040       -0.01240
C         -1.01700        2.13210       -0.16180
C         -1.03710        3.64400       -0.03820
C         -0.16780        3.85350        1.19780
C          0.93420        2.77130        1.12390
C          0.48110       -1.15720       -1.26840
C         -1.02630       -1.41720       -1.39340
C         -1.10490       -2.24410       -2.66170
C         -0.22700       -1.45250       -3.60740
C          0.86020       -0.79210       -2.71280
Pd         3.44590        0.07370        0.06610
Br         3.34100        1.29540       -2.09770
C          3.47270       -0.88720        1.89210
C          3.33010       -0.19360        3.02090
P          5.90590        0.07370        0.06610
C          7.11390        0.46880        1.42790
C          6.90410        1.95850        1.79880
C          6.89850       -0.34690        2.70360
C          6.36790       -1.69060       -0.21630
C          5.79400       -2.08050       -1.59010
C          7.90440       -1.86070       -0.32300
C          6.37810        1.25740       -1.24240
H          0.50430       -0.19240        2.43120
H         -2.08740       -0.82510        0.99340
H         -1.74480        0.41960        2.23250
H         -2.68660       -1.82710        3.18480
H         -1.10970       -1.25340        3.87740
H         -1.52440       -3.23290        1.61100
H         -0.66030       -3.61030        3.13810
H          0.50040       -2.81740        0.82670
H          1.27250       -2.33210        2.35070
H          0.91830        2.25880       -0.95030
H         -1.60400        1.73940        0.67350
H         -1.46500        1.76560       -1.10640
H         -2.05870        4.07650        0.05530
H         -0.54460        4.08240       -0.93330
H         -0.81830        3.59060        2.06370
H          0.18880        4.89340        1.35380
H          0.97880        2.26240        2.10980
H          1.93490        3.17940        0.86390
H          0.95650       -2.13810       -1.07950
H         -1.58640       -0.46500       -1.54140
H         -1.46940       -2.00480       -0.57160
H         -2.13850       -2.42290       -3.03970
H         -0.63830       -3.23140       -2.45000
H         -0.86550       -0.63500       -4.01260
H          0.14570       -2.05570       -4.46160
H          0.76960        0.29980       -2.87490
H          1.88100       -1.14520       -2.94560
H          3.62430       -1.95910        1.92840
H          3.19750        0.88240        2.99130
H          3.35490       -0.70180        3.98090
H          8.16290        0.37710        1.08320
H          5.84920        2.14660        2.11500
H          7.12490        2.63290        0.94780
H          7.56910        2.27250        2.63050
H          5.89150       -0.15280        3.13080
H          7.63440       -0.02990        3.47750
H          7.02150       -1.42580        2.53130
H          5.96780       -2.35490        0.57380
H          6.22210       -1.43070       -2.39050
H          4.69140       -1.97330       -1.61330
H          6.06220       -3.12640       -1.85020
H          8.33230       -1.15080       -1.06780
H          8.17080       -2.88980       -0.64020
H          8.41580       -1.70860        0.64460
H          5.98490        2.26600       -0.99580
H          5.98820        0.94020       -2.22590
H          7.48190        1.30490       -1.32560
