74

P          0.94720       -0.08030       -0.02770
C         -0.16210       -0.73280       -1.40700
C          0.03280        0.03010       -2.73210
C         -0.64510       -0.86930       -3.74610
C         -0.09140       -2.23170       -3.37340
C          0.09600       -2.19420       -1.84380
C          0.64690       -1.25350        1.39150
C         -0.81510       -1.45310        1.82360
C         -0.73010       -2.69100        2.69780
C          0.09880       -3.59620        1.81060
C          1.22050       -2.68420        1.29200
C          0.15340        1.62580       -0.00130
C         -1.37360        1.59540        0.25290
C         -1.69950        3.03470        0.57460
C         -0.58490        3.39770        1.53840
C          0.64690        2.58000        1.09200
Pd         3.40720       -0.08030       -0.02770
Br         3.40720        0.97780        2.33630
C          3.40720       -0.95860       -1.99010
C          3.44780       -0.21780       -3.09760
C          5.55720       -0.08030       -0.02770
N          6.41170       -0.19540       -1.03500
C          6.22200       -0.24870       -2.45830
C          7.76920       -0.14700       -0.57130
C          7.64360        0.41670        0.78320
N          6.35740       -0.08070        1.21470
C          6.25720       -0.82270        2.50120
C          5.06210       -1.32260        3.09250
C          5.03150       -1.79410        4.42130
C          6.19980       -1.94790        5.15660
C          7.41040       -1.67870        4.54840
C          7.43800       -1.12380        3.26500
H         -1.23920       -0.67440       -1.16580
H          1.09320        0.07490       -2.98880
H         -0.34810        1.06830       -2.76050
H         -0.44620       -0.59230       -4.80880
H         -1.73750       -0.84000       -3.55940
H          0.92750       -2.27510       -3.82880
H         -0.65630       -3.10510       -3.76920
H          1.13890       -2.51240       -1.68600
H         -0.59180       -2.87320       -1.29910
H          1.12210       -0.80430        2.29130
H         -1.45610       -1.68360        0.94260
H         -1.24970       -0.61280        2.39670
H         -1.72500       -3.11200        2.96660
H         -0.17160       -2.45600        3.63130
H         -0.55700       -3.86950        0.95130
H          0.44790       -4.53910        2.27850
H          1.54620       -3.03750        0.30490
H          2.09990       -2.73390        1.96980
H          0.30610        2.15650       -0.96340
H         -1.60240        1.01600        1.15750
H         -2.00780        1.22040       -0.57560
H         -2.71710        3.17470        1.01160
H         -1.61430        3.63200       -0.35510
H         -0.89320        2.99300        2.53130
H         -0.42700        4.49000        1.66170
H          0.97420        2.02850        1.98950
H          1.47200        3.20700        0.69080
H          3.37580       -2.03940       -2.07250
H          3.49400        0.86350       -3.02660
H          3.46500       -0.69440       -4.07290
H          5.74770       -1.20710       -2.76200
H          7.20660       -0.28270       -2.98210
H          5.75470        0.67360       -2.81620
H          8.43190        0.51990       -1.17040
H          8.17820       -1.19410       -0.57220
H          7.53230        1.52140        0.70490
H          8.55290        0.26890        1.38230
H          4.12610       -1.31570        2.59680
H          4.08810       -2.03880        4.89570
H          6.17380       -2.30880        6.18080
H          8.33420       -1.86920        5.08650
H          8.44600       -0.95360        2.92950
