71

P          0.97620       -0.06460        0.07250
C         -0.03050       -1.55250       -0.76560
C          0.24190       -1.84450       -2.29810
C          1.61100       -2.50900       -2.58640
C          1.78560       -3.81930       -1.79960
C          1.49760       -3.56750       -0.33450
C          0.08870       -2.98940       -0.16880
C          0.57710        0.07690        1.98530
C         -0.92050        0.07570        2.39400
C         -1.59400       -1.29100        2.31650
C         -0.86210       -2.29470        3.19330
C          0.70070       -2.26730        3.07470
C          1.21320       -0.82850        3.08860
C          0.20810        1.21500       -1.22860
C         -1.37180        1.40220       -1.29390
C         -2.00310        2.45340       -0.31770
C         -1.19770        3.75060       -0.16330
C          0.30870        3.49390       -0.09400
C          0.67690        2.68690       -1.32550
Pd         3.43620       -0.06460        0.07250
Br         3.81100       -2.04460        1.62220
C          3.53190        1.54150       -1.16750
C          3.80860        2.74810       -0.66120
N          5.53620       -0.06460        0.07250
C          5.56910        0.62320        1.38510
N          6.26240       -1.21750        0.26480
C          7.41580       -1.12390       -0.29720
C          7.52410        0.07280       -0.98770
C          6.32050        0.71660       -0.81400
H         -1.09320       -1.29760       -0.70730
H          0.09480       -0.99140       -2.97150
H         -0.52760       -2.57430       -2.64520
H          2.42200       -1.80210       -2.31780
H          1.69960       -2.76340       -3.66480
H          2.82140       -4.20810       -1.91780
H          1.08150       -4.60210       -2.14810
H          2.17920       -2.80730       -0.00560
H          1.62220       -4.49390        0.26070
H         -0.27190       -3.05930        0.83940
H         -0.61880       -3.69170       -0.66380
H          0.96100        1.08910        2.22750
H         -1.47000        0.75640        1.81740
H         -1.02680        0.43220        3.44020
H         -1.66270       -1.59460        1.27810
H         -2.66020       -1.21620        2.63600
H         -1.26000       -3.32480        3.02910
H         -1.09820       -2.02450        4.25130
H          1.12160       -2.72540        2.18560
H          1.12280       -2.87170        3.90590
H          2.30080       -0.73120        3.10580
H          0.93240       -0.42380        4.09200
H          0.52520        0.82240       -2.20280
H         -1.96540        0.47470       -1.29070
H         -1.57970        1.83070       -2.30030
H         -2.15550        2.08520        0.66810
H         -3.04090        2.69910       -0.62950
H         -1.53600        4.32090        0.73180
H         -1.38400        4.38470       -1.05430
H          0.63980        2.95840        0.81980
H          0.82340        4.47840       -0.12710
H          1.68140        2.82000       -1.62590
H          0.21900        3.17870       -2.22020
H          3.40410        1.39520       -2.23720
H          3.93570        2.87720        0.40510
H          3.87430        3.60810       -1.32130
H          6.06110        0.02830        2.19220
H          6.08260        1.61350        1.37910
H          4.53720        0.81960        1.74050
H          8.17720       -1.88810       -0.23810
H          8.36450        0.43900       -1.56280
H          6.08340        1.68070       -1.23440
