61

O         -0.32800       -1.08200        0.00300
C         -0.52860       -0.20830        0.96010
N         -0.04920        1.00370        0.61760
C          0.44000        0.82920       -0.62770
C          0.28850       -0.49380       -0.98740
Pd        -0.91570       -3.04590        0.01600
Br         1.52250       -3.77240        0.50130
C         -2.93970       -2.44290       -0.38680
C         -3.40970       -1.20720       -0.22340
P         -1.62100       -5.40260        0.03160
C         -0.42220       -6.85100        0.62520
C         -0.03860       -6.51860        2.09310
C         -0.86380       -8.35270        0.66280
C          0.88480       -6.94200       -0.22600
C         -3.40450       -5.49270        0.88170
C         -4.66320       -4.86100        0.21120
C         -3.88260       -6.94140        1.08600
C         -3.28940       -4.85210        2.28440
C         -1.62310       -5.97980       -1.71280
C         -1.15430       -5.21840       -2.79530
C         -1.13650       -5.75930       -4.09690
C         -1.55860       -7.10460       -4.34580
N         -1.49750       -7.70520       -5.65620
C         -1.29990       -9.13550       -5.83440
C         -1.66140       -6.91530       -6.86210
C         -2.05110       -7.82820       -3.25810
C         -2.10290       -7.26810       -1.99010
H         -0.96290       -0.44470        1.92320
H          0.85370        1.62060       -1.23810
H          0.52840       -0.94990       -1.93900
H         -3.57650       -3.15620       -0.75270
H         -2.82240       -0.43440        0.23350
H         -4.45480       -0.99110       -0.41160
H         -0.90740       -6.64540        2.76130
H          0.33660       -5.48610        2.22010
H          0.74420       -7.20170        2.49090
H         -1.72360       -8.60610        1.27190
H         -0.05800       -8.95490        1.14560
H         -0.94770       -8.82770       -0.31040
H          1.46190       -6.04630       -0.37800
H          0.67140       -7.31080       -1.24750
H          1.60890       -7.65050        0.24010
H         -4.68180       -5.05180       -0.88450
H         -4.84910       -3.81560        0.53830
H         -5.62520       -5.23770        0.61340
H         -4.04660       -7.46300        0.12690
H         -4.86560       -6.97890        1.60730
H         -3.24760       -7.47090        1.79020
H         -2.93220       -3.80350        2.20300
H         -2.59180       -5.39310        2.94150
H         -4.27030       -4.84300        2.80880
H         -0.79100       -4.21110       -2.63350
H         -0.74440       -5.15690       -4.90290
H         -1.11090       -9.67670       -4.88480
H         -0.40000       -9.30380       -6.46450
H         -2.17820       -9.59340       -6.33880
H         -1.89440       -5.85520       -6.64940
H         -2.51950       -7.31840       -7.44570
H         -0.74380       -6.97930       -7.47900
H         -2.42010       -8.83660       -3.37480
H         -2.52170       -7.88410       -1.22650
