55

P          1.07410       -0.05910        0.03170
C          0.33100        1.43460       -0.66050
C         -1.01750        1.67030       -0.96240
C         -1.39930        2.91910       -1.48500
C         -0.45360        3.93610       -1.67300
C          0.87890        3.71520       -1.33870
C          1.26280        2.47490       -0.83920
C          0.89880       -1.18750       -1.38760
C          1.85740       -2.22400       -1.47310
C          1.73640       -3.24100       -2.42020
C          0.65540       -3.24920       -3.29790
C         -0.31300       -2.24670       -3.21790
C         -0.19600       -1.22560       -2.26730
C          0.29020       -0.33610        1.62390
C          0.07770       -1.67160        2.01260
C         -0.50280       -1.96840        3.24550
C         -0.88140       -0.93160        4.10230
C         -0.67550        0.40070        3.72180
C         -0.08610        0.70670        2.48640
Pd         3.53410       -0.05910        0.03170
Br         3.53410        0.35000       -2.52580
C          3.53410       -0.39880        2.15470
C          4.43740       -0.30050        3.14320
N          5.63410       -0.05910        0.03170
C          6.29720        0.65140       -0.93420
C          7.69900        0.71400       -0.97030
C          8.41030        1.61940       -1.93300
C          8.43260       -0.05530       -0.06950
C          7.76350       -0.82810        0.86920
C          6.36900       -0.79310        0.92210
H         -1.76730        0.91230       -0.80130
H         -2.43210        3.10780       -1.74200
H         -0.74910        4.90040       -2.06720
H          1.61700        4.50030       -1.46020
H          2.30810        2.33280       -0.57900
H          2.68390       -2.25780       -0.77470
H          2.47690       -4.02650       -2.46280
H          0.55230       -4.04830       -4.02110
H         -1.16510       -2.27260       -3.88410
H         -0.99120       -0.51240       -2.23040
H          0.36940       -2.48890        1.35990
H         -0.65760       -3.00160        3.53810
H         -1.32940       -1.16520        5.06140
H         -0.96990        1.19590        4.39170
H          0.07170        1.73550        2.20310
H          2.56500       -0.66810        2.52950
H          5.46060        0.01830        3.04180
H          4.11900       -0.53710        4.15650
H          5.75540        1.27010       -1.62280
H          7.69480        2.21870       -2.53620
H          9.05880        1.03290       -2.61330
H          9.03860        2.33270       -1.35460
H          9.51500       -0.05470       -0.09420
H          8.31970       -1.45820        1.55150
H          5.89720       -1.46850        1.60950
