63

P          0.96500        0.01260        0.09280
C          0.18610        0.40630       -1.49740
C         -1.17960        0.31480       -1.82640
C         -1.60450        0.52950       -3.14530
C         -0.67600        0.81310       -4.15350
C          0.67850        0.88520       -3.84690
C          1.10150        0.68000       -2.53580
C          0.45960       -1.70990        0.26550
C          0.71320       -2.64800       -0.74480
C          0.35830       -3.99000       -0.56880
C         -0.28380       -4.39510        0.60380
C         -0.58150       -3.45660        1.59530
C         -0.21300       -2.11760        1.42690
C          0.30230        1.31600        1.16660
C         -1.09550        1.38390        1.34940
C         -1.66120        2.25250        2.29030
C         -0.84220        3.05150        3.06350
C          0.54740        2.99890        2.91060
C          1.12000        2.12090        1.96530
Pd         3.42500        0.01260        0.09280
Br         3.42500        2.50390       -0.61540
C          3.42500       -2.05540        0.68080
C          3.47180       -3.05360       -0.20070
P          5.88500        0.01260        0.09280
C          7.01670       -0.80350        1.30320
C          6.13540       -1.53420       -0.86780
C          6.79590        1.62290       -0.28080
C          6.49270        2.65820        0.82880
C          8.32800        1.41040       -0.28500
C          6.49540        2.15360       -1.71180
H         -1.92820        0.04100       -1.10460
H         -2.65240        0.44990       -3.40180
H         -1.00160        0.95840       -5.17620
H          1.40670        1.07930       -4.62400
H          2.16410        0.70280       -2.33890
H          1.21230       -2.34640       -1.65660
H          0.58910       -4.71630       -1.33750
H         -0.55250       -5.43450        0.74270
H         -1.08920       -3.76840        2.49860
H         -0.43930       -1.40480        2.20910
H         -1.76760        0.73770        0.82740
H         -2.73920        2.27170        2.41870
H         -1.28520        3.70660        3.81040
H          1.18040        3.59960        3.54460
H          2.19550        2.05530        1.90020
H          3.56750       -2.29540        1.72910
H          3.44120       -2.84320       -1.26370
H          3.56590       -4.08020        0.13800
H          6.60050       -1.77750        1.64350
H          7.03410       -0.17170        2.21770
H          8.05260       -0.96120        0.95160
H          5.82110       -2.45470       -0.35740
H          7.21870       -1.66480       -1.09050
H          5.63270       -1.43580       -1.85020
H          6.77700        2.25020        1.82190
H          5.43540        2.93770        0.91860
H          7.06120        3.59820        0.66750
H          8.71540        1.10920        0.70210
H          8.84350        2.36510       -0.53620
H          8.61050        0.65760       -1.05090
H          5.46610        2.35450       -1.98510
H          6.83260        1.41990       -2.47390
H          7.03310        3.11130       -1.88780
