23

P          0.96520        0.07810        0.05190
F         -0.68970        0.32930        0.03610
F          0.92850       -0.31550       -1.57500
F          0.77760       -1.13690        1.18640
Pt         3.42520        0.07810        0.05190
Br         3.35520        1.65250       -1.88990
C          3.37320       -0.90700        1.88040
C          3.73180       -0.25020        2.98630
N          5.52520        0.07810        0.05190
C          5.70910       -0.52550       -1.27770
N          6.17090        1.29150       -0.02060
C          7.17360        1.31060        0.78330
C          7.25240        0.11140        1.49190
C          6.19350       -0.63630        1.07000
H          3.02720       -1.93180        1.95080
H          4.06660        0.78410        2.91230
H          3.68450       -0.72550        3.95610
H          4.74110       -0.67480       -1.78440
H          6.16680       -1.54020       -1.20750
H          6.37870        0.06160       -1.95220
H          7.85270        2.14950        0.88090
H          7.97580       -0.15780        2.24420
H          5.92950       -1.62610        1.41550
