87

P          1.02230       -0.06250       -0.07480
C          0.25430        1.56060       -0.30840
C         -1.08600        1.78780       -0.73640
C         -2.06570        0.67860       -1.00450
C         -1.54490        3.11570       -0.88090
C         -0.71450        4.21000       -0.59450
C         -1.18310        5.62820       -0.74350
C          0.57720        3.99050       -0.13590
C          1.07640        2.69590        0.01950
C          2.45950        2.57460        0.62820
C          0.81600       -0.76890       -1.88810
C          0.81780        0.02040       -3.11730
C          0.72090        1.51470       -3.30960
C          0.98850       -0.59940       -4.37680
C          1.11500       -1.96080       -4.53190
C          1.43930       -2.58340       -5.85930
C          0.92220       -2.75640       -3.44230
C          0.72810       -2.22350       -2.15600
C          0.41040       -3.35740       -1.21920
C          0.06850       -0.62610        1.54720
C         -0.89840        0.20710        2.26730
C         -1.10800        1.69110        2.18260
C         -1.77970       -0.33510        3.21800
C         -1.74040       -1.65090        3.59640
C         -2.75220       -2.18900        4.57220
C         -0.73580       -2.44670        3.09080
C          0.18040       -1.97900        2.11530
C          1.23940       -3.01490        1.80840
Pt         3.48230       -0.06250       -0.07480
Br         3.63770        0.59920       -2.48580
C          3.40620       -0.63730        1.98680
C          4.34960       -1.14820        2.81000
N          5.58230       -0.06250       -0.07480
C          6.24080       -0.38540       -1.22850
C          7.61470       -0.57600       -1.26730
C          8.40820       -0.37290       -0.12260
N          9.84010       -0.62680       -0.12860
C         10.55440       -1.16520       -1.28440
C         10.69010       -0.42580        1.03930
C          7.71930        0.06430        1.03250
C          6.32840        0.18590        1.03440
H         -1.63890       -0.32760       -0.83950
H         -2.43930        0.74740       -2.04510
H         -2.92630        0.78350       -0.30790
H         -2.56160        3.29860       -1.20490
H         -2.22660        5.68210       -1.11320
H         -0.52300        6.15880       -1.46400
H         -1.12290        6.14930        0.23680
H          1.19650        4.84530        0.11790
H          2.89030        3.56190        0.90410
H          3.17050        2.09930       -0.06320
H          2.39470        1.99470        1.57510
H          0.73170        2.17860       -2.46960
H         -0.23390        1.70080       -3.84990
H          1.55810        1.88390       -3.93010
H          1.07470        0.00580       -5.26990
H          1.61630       -1.81010       -6.63420
H          0.62380       -3.25880       -6.18550
H          2.37810       -3.17600       -5.75860
H          0.93920       -3.83450       -3.60910
H         -0.20420       -4.13970       -1.73080
H         -0.32160       -3.06510       -0.43960
H          1.31720       -3.96550       -1.00160
H         -0.17660        2.23250        2.01810
H         -1.27440        2.09560        3.20510
H         -2.02950        1.95830        1.63090
H         -2.53010        0.29500        3.68650
H         -3.49940       -1.41440        4.85540
H         -2.25610       -2.55130        5.49450
H         -3.30860       -3.02450        4.09600
H         -0.68130       -3.46090        3.47560
H          0.99770       -4.03320        2.19660
H          2.22060       -2.79280        2.23670
H          1.46270       -3.05730        0.78990
H          2.43830       -0.58950        2.43930
H          5.36840       -1.39310        2.54810
H          4.07810       -1.43870        3.82060
H          5.73100       -0.66380       -2.12560
H          7.98910       -0.91950       -2.21320
H          9.95260       -1.34390       -2.18360
H         11.00140       -2.14680       -1.01670
H         11.36560       -0.46910       -1.58070
H         10.18590       -0.04010        1.93320
H         11.49340        0.29800        0.79070
H         11.15260       -1.39280        1.33070
H          8.19520        0.30030        1.96460
H          5.86110        0.55450        1.93090
