42

P          0.93910        0.07330       -0.03040
C         -0.25000        0.95160       -1.11300
C          0.69240       -1.56280       -0.78440
C          0.26380        0.53410        1.59740
C         -1.13400        0.66070        1.77870
C         -1.66560        1.12390        2.98320
C         -0.81920        1.43650        4.04370
C          0.56440        1.30750        3.88980
C          1.09910        0.87340        2.67200
Pt         3.39910        0.07330       -0.03040
Br         3.39910       -1.47590        2.04520
C          3.39910        1.35930       -1.75340
C          4.38590        1.66950       -2.59830
C          5.54910        0.07330       -0.03040
N          6.32850        1.16850       -0.24940
C          5.94810        2.57880       -0.30650
C          7.60560        0.75710       -0.18890
C          7.61690       -0.58260        0.08660
N          6.34410       -1.00590        0.22090
C          5.98380       -2.41480        0.37190
H         -1.29100        0.59590       -1.04300
H          0.07170        0.80990       -2.16720
H         -0.19260        2.04070       -0.89840
H         -0.39570       -1.77900       -0.85440
H          1.18120       -2.34900       -0.17890
H          1.11950       -1.55960       -1.81000
H         -1.83470        0.44310        0.99170
H         -2.73680        1.24810        3.08820
H         -1.23490        1.79340        4.97720
H          1.21720        1.55270        4.71430
H          2.16990        0.83210        2.57160
H          2.42510        1.76770       -1.99770
H          5.38710        1.28100       -2.51200
H          4.17410        2.33360       -3.43200
H          4.86020        2.71540       -0.15980
H          6.30140        3.05570       -1.24830
H          6.42860        3.10890        0.54560
H          8.48110        1.40070       -0.28770
H          8.49480       -1.20860        0.18260
H          6.88790       -3.05630        0.28280
H          5.29290       -2.71110       -0.44880
H          5.56640       -2.63960        1.35980
