70

P          1.08560       -0.04070        0.03190
C          0.22070        1.46440        1.03130
C         -1.32050        1.44440        1.06520
C          0.64930        1.60990        2.53390
C          0.65080        2.85800        0.50650
C          0.63860        0.22980       -1.86080
C          1.24100        1.43290       -2.64840
C          1.10120       -1.00040       -2.66130
C         -0.88610        0.35210       -2.07580
C          0.41740       -1.61090        0.93000
C          0.45810       -2.22890        2.43740
C         -0.17480       -1.34090        3.49780
C         -0.35400       -3.54780        2.41630
C          1.82150       -2.60360        3.04260
Pt         3.54560       -0.04070        0.03190
Br         3.54560        2.36100       -0.93780
C          3.54560       -2.03430        0.83690
C          3.24560       -3.12200        0.12370
N          5.64560       -0.04070        0.03190
C          6.13500       -0.85390        1.16060
C          6.17060        1.33150        0.08560
C          6.20080       -0.61910       -1.19070
C          5.49810       -0.51880       -2.40490
C          6.04180       -1.04040       -3.59340
C          7.28910       -1.66770       -3.58510
C          8.01230       -1.77410       -2.41490
C          7.48450       -1.25710       -1.22420
H         -1.70040        0.50070        1.49320
H         -1.80960        1.62940        0.11440
H         -1.69760        2.27760        1.70970
H         -0.04460        1.14440        3.22860
H          0.43040        2.62800        2.93910
H          1.73840        1.47390        2.72190
H          0.31910        3.07120       -0.50230
H          1.72560        3.02320        0.68170
H          0.18780        3.69010        1.08550
H          2.31200        1.29100       -2.86270
H          1.05440        2.42830       -2.23860
H          0.80280        1.50800       -3.66730
H          2.20750       -1.08210       -2.64510
H          0.80350       -0.89270       -3.73350
H          0.64640       -1.93300       -2.28000
H         -1.24720        1.34480       -1.77580
H         -1.44750       -0.46970       -1.59000
H         -1.14080        0.33740       -3.16110
H          0.76320       -2.43290        0.27470
H         -0.66980       -1.53160        0.71900
H         -1.16060       -0.94740        3.18480
H          0.57900       -0.59860        3.77850
H         -0.30830       -1.87990        4.45980
H         -1.41240       -3.36880        2.13990
H         -0.34360       -4.03690        3.41860
H          0.08990       -4.27160        1.69860
H          2.44230       -1.68820        3.14590
H          2.29600       -3.44100        2.50530
H          1.72550       -2.99060        4.08120
H          3.94790       -2.16410        1.82710
H          2.90670       -3.05780       -0.90050
H          3.35620       -4.10230        0.58420
H          5.65320       -0.49600        2.09610
H          7.21750       -0.72460        1.36380
H          5.97090       -1.94070        1.02650
H          5.47940        1.97320        0.66000
H          6.49320        1.76280       -0.89090
H          7.04620        1.41160        0.76690
H          4.53680       -0.03560       -2.43300
H          5.49210       -0.94800       -4.51910
H          7.70960       -2.07420       -4.49820
H          8.96310       -2.26090       -2.38960
H          8.11830       -1.37740       -0.36460
