72

P          1.06890       -0.07230        0.00410
C          0.10720        1.46400        0.12800
C         -0.44450        1.91970        1.33500
C         -0.95960        3.22430        1.43240
C         -0.91510        4.09840        0.32390
O         -1.38080        5.37530        0.36250
C         -1.96770        5.99010        1.44480
C         -0.34680        3.65200       -0.86100
C          0.17120        2.36430       -0.95930
C          0.82980       -0.42540       -1.76200
C          1.92470       -0.50450       -2.62670
C          1.73480       -0.76070       -3.98680
C          0.45170       -0.95050       -4.51010
O          0.34450       -1.20790       -5.83960
C         -0.73230       -1.78010       -6.48360
C         -0.65860       -0.86120       -3.64660
C         -0.46800       -0.59410       -2.28340
C          0.44630       -1.36750        1.09280
C         -0.19780       -2.48360        0.54750
C         -0.72970       -3.47250        1.37030
C         -0.62540       -3.36440        2.76850
O         -1.12890       -4.31110        3.60170
C         -1.75830       -5.47250        3.20410
C          0.02040       -2.24780        3.31890
C          0.55810       -1.25440        2.48790
Pt         3.52890       -0.07230        0.00410
Br         3.39030       -2.55220       -0.33020
C          3.38380        2.01650        0.35750
C          4.31900        2.95120        0.14610
N          5.62890       -0.07230        0.00410
C          6.25690       -1.12970       -0.58670
C          7.64020       -1.28450       -0.56720
C          8.46200       -0.37900        0.13130
N          9.90030       -0.58050        0.24570
C         10.62390       -1.62440       -0.47770
C         10.74790        0.20560        1.13730
C          7.79380        0.70060        0.75360
C          6.40320        0.83970        0.66430
H         -0.43750        1.29890        2.21800
H         -1.35740        3.55760        2.38040
H         -2.25730        7.02170        1.15670
H         -1.24990        6.04370        2.29020
H         -2.88090        5.43630        1.74830
H         -0.27050        4.31800       -1.71840
H          0.66040        2.09880       -1.88620
H          2.92870       -0.36470       -2.25640
H          2.59390       -0.82230       -4.63990
H         -0.53120       -1.78590       -7.57540
H         -1.66790       -1.21230       -6.30470
H         -0.84660       -2.83290       -6.14760
H         -1.66950       -0.98300       -4.01570
H         -1.33270       -0.51610       -1.63420
H         -0.30380       -2.59820       -0.51930
H         -1.22200       -4.31310        0.90850
H         -2.04630       -6.06680        4.09400
H         -1.06860       -6.08200        2.58080
H         -2.67600       -5.23290        2.62420
H          0.10590       -2.14530        4.39610
H          1.04720       -0.39710        2.93370
H          2.42740        2.41210        0.66110
H          5.27420        2.74170       -0.30850
H          4.10630        3.99610        0.33490
H          5.70500       -1.86180       -1.14080
H          8.00570       -2.14950       -1.08790
H         10.02470       -2.21740       -1.18090
H         11.07470       -2.33520        0.24910
H         11.43590       -1.16340       -1.08180
H         10.22950        0.97040        1.73020
H         11.54080        0.71420        0.55160
H         11.22990       -0.47350        1.87610
H          8.29250        1.44510        1.34630
H          5.97510        1.61530        1.26820
