73

P          1.06980        0.02460       -0.06730
C          0.04290       -1.47480       -0.05740
C         -1.34270       -1.45190        0.17620
C         -2.04160       -2.64260        0.37630
C         -1.37020       -3.88500        0.35580
O         -1.99690       -5.06230        0.61740
C         -3.30050       -5.19190        1.05190
C          0.00460       -3.90720        0.08890
C          0.70490       -2.71350       -0.10780
C          0.49080        0.44140        1.58770
C          0.84040       -0.37270        2.67850
C          0.30570       -0.12590        3.94320
C         -0.59630        0.93320        4.13370
O         -1.18770        1.19070        5.33100
C         -1.04870        0.42760        6.47100
C         -0.92780        1.75200        3.04770
C         -0.38480        1.51210        1.77750
C          0.51340        0.75390       -1.63550
C         -0.50790        0.20100       -2.43750
C         -0.95510        0.87180       -3.57360
C         -0.39290        2.09720       -3.94840
O         -0.76590        2.73550       -5.08560
C         -1.57580        2.19120       -6.06320
C          0.59760        2.66560       -3.14200
C          1.04200        2.00430       -1.99020
Pt         3.52980        0.02460       -0.06730
Br         3.52980       -1.12210       -2.38960
C          3.52980        0.97650        1.86050
C          4.39170        1.19280        2.85810
P          5.98980        0.02460       -0.06730
N          6.90070        0.03830        1.46310
C          6.63220       -1.21980        2.18480
C          8.32620        0.37880        1.47660
O          7.44110       -0.40480       -0.85950
C          7.13580       -1.21310       -1.96920
O          5.79970        1.68980        0.18220
C          5.66580        2.22910       -1.12010
H         -1.86810       -0.51160        0.25270
H         -3.09900       -2.59130        0.59300
H         -3.52440       -6.26380        1.23230
H         -4.00450       -4.80310        0.28690
H         -3.43890       -4.64370        2.01010
H          0.54030       -4.85100        0.07880
H          1.77750       -2.75700       -0.25220
H          1.51430       -1.21130        2.54270
H          0.58900       -0.77760        4.75900
H         -1.68590        0.85620        7.27030
H          0.00720        0.43040        6.81190
H         -1.38470       -0.61520        6.27860
H         -1.62770        2.56990        3.17390
H         -0.68320        2.13140        0.93910
H         -0.99230       -0.72810       -2.21190
H         -1.74760        0.41020       -4.15020
H         -1.63030        2.87810       -6.93160
H         -2.60100        2.01610       -5.67350
H         -1.13810        1.22890       -6.41060
H          1.02780        3.62390       -3.40960
H          1.80090        2.47470       -1.37140
H          2.58770        1.42720        2.08860
H          5.39210        0.86490        2.92870
H          4.04140        1.74280        3.72940
H          5.54050       -1.44980        2.18610
H          6.92250       -1.11880        3.25320
H          7.16720       -2.07670        1.72690
H          8.49730        1.33360        0.94260
H          8.93780       -0.44040        1.04180
H          8.65060        0.51230        2.53230
H          7.96520       -1.93600       -2.11230
H          7.05450       -0.58350       -2.88000
H          6.23170       -1.84760       -1.84040
H          5.44280        3.31090       -1.05720
H          4.81380        1.77270       -1.68220
H          6.60940        2.12400       -1.70820
