84

P          1.00000        0.06180       -0.07860
C          0.13910        0.08960       -1.69660
C         -1.24140       -0.08410       -1.90380
C         -1.75880       -0.10460       -3.21650
C         -0.91110        0.04760       -4.32220
F         -1.40900        0.03060       -5.58490
C          0.45560        0.19650       -4.12690
C          0.97110        0.19900       -2.83320
C          0.48270       -1.53710        0.57700
C          0.70180       -2.70630       -0.15300
C          0.38830       -3.95580        0.39860
C         -0.19910       -4.03640        1.66250
F         -0.48180       -5.24720        2.20340
C         -0.49340       -2.86630        2.36720
C         -0.15430       -1.61860        1.82700
C          0.38010        1.58980        0.69410
C         -0.62120        2.40400        0.12650
C         -1.20720        3.43250        0.87230
C         -0.79570        3.67710        2.18370
F         -1.39070        4.65530        2.91070
C          0.21260        2.89710        2.75070
C          0.79250        1.85680        2.01420
Pt         3.46000        0.06180       -0.07860
Br         3.15270        2.17880       -1.34300
C          3.78770       -1.65570        1.10070
C          3.41300       -2.92670        0.96240
P          5.92000        0.06180       -0.07860
C          6.43000       -0.94010       -1.66390
C          5.81750       -0.30570       -2.93390
C          7.91540       -1.18840       -2.01570
C          5.75940       -2.32660       -1.56760
C          6.46580        1.92760       -0.47920
C          5.80910        2.76100        0.64740
C          7.98510        2.28140       -0.33550
C          6.19470        2.56600       -1.88720
C          6.60630       -1.02140        1.34500
C          8.09870       -1.15020        1.87600
C          8.73400        0.20160        2.16110
C          8.08800       -1.91960        3.21890
C          9.03140       -1.90930        0.93450
H         -1.90960       -0.22000       -1.06690
H         -2.81660       -0.24600       -3.38720
H          1.12430        0.29820       -4.97610
H          2.04000        0.27370       -2.73800
H          1.17630       -2.65520       -1.12500
H          0.62530       -4.85940       -0.14780
H         -0.96640       -2.92790        3.33940
H         -0.37190       -0.72610        2.39800
H         -1.00840        2.23330       -0.86120
H         -2.00560        4.02300        0.44130
H          0.52110        3.07910        3.77330
H          1.53680        1.23300        2.49450
H          4.35780       -1.50380        1.98810
H          2.94940       -3.26450        0.06870
H          3.68050       -3.64290        1.72080
H          6.40310        0.53930       -3.30000
H          4.75170       -0.03900       -2.79210
H          5.87890       -0.99990       -3.80090
H          8.54180       -0.28130       -1.96410
H          8.01220       -1.56220       -3.06080
H          8.32610       -2.05680       -1.48580
H          4.66060       -2.21770       -1.46820
H          6.15150       -2.91540       -0.71870
H          5.95380       -2.93350       -2.47990
H          6.17430        2.39300        1.63370
H          4.71600        2.67530        0.68820
H          6.07790        3.83860        0.58060
H          8.32050        2.42420        0.70290
H          8.20140        3.31860       -0.69070
H          8.64550        1.63170       -0.94000
H          5.30400        2.33120       -2.45240
H          7.01810        2.35280       -2.60040
H          6.23640        3.67760       -1.80860
H          6.24840       -2.06110        1.25580
H          6.13690       -0.52130        2.22100
H          8.09890        0.84490        2.80910
H          8.92430        0.62750        1.19150
H          9.74440        0.10670        2.60980
H          7.48300       -1.38650        3.98390
H          9.12400       -2.00100        3.62330
H          7.69130       -2.94770        3.09440
H          9.28600       -1.25920        0.08780
H          8.58610       -2.88210        0.63380
H         10.01660       -2.09970        1.40660
