61

P          1.07260        0.06760       -0.01280
C          0.24140       -1.41310        0.90340
C         -1.30320       -1.48310        0.88890
C          0.76160       -2.73200        0.28770
C          0.68210       -1.47760        2.38490
C          0.65780        1.71390        1.00380
C          1.24890        1.89140        2.42920
C          1.18050        2.99570        0.30280
C         -0.86700        1.89780        1.14780
C          0.39210       -0.26410       -1.76510
C          0.35610        0.69480       -3.05880
C          1.70760        1.03090       -3.65370
C         -0.46790       -0.01780       -4.15380
C         -0.35820        2.04290       -2.82900
Pt         3.53260        0.06760       -0.01280
Br         3.90960        0.25690        2.43560
C          3.66880       -0.38260       -2.00810
C          4.46190        0.42550       -2.75020
O          5.58260        0.06760       -0.01280
C          6.15720       -1.07020       -0.62230
C          7.67780       -0.94880       -0.53450
C          5.70480       -2.28620        0.19820
H         -1.72330       -1.56380       -0.12660
H         -1.79190       -0.65860        1.41290
H         -1.63710       -2.38940        1.44120
H          0.43760       -2.86220       -0.76010
H          0.36830       -3.61610        0.83770
H          1.87290       -2.77890        0.33680
H          0.20020       -0.70130        2.99140
H          1.78470       -1.44990        2.48180
H          0.35420       -2.42330        2.86890
H          2.31190        2.15860        2.39150
H          1.06380        1.10340        3.15720
H          0.81930        2.79840        2.91330
H          2.26420        2.94170        0.07280
H          1.02650        3.89740        0.94380
H          0.59180        3.29360       -0.54350
H         -1.27850        1.23000        1.91550
H         -1.38370        1.77540        0.17380
H         -1.11550        2.91470        1.52950
H         -0.68560       -0.42890       -1.58540
H          0.82550       -1.21840       -2.10900
H          2.19080        0.09960       -4.00090
H          2.28550        1.60600       -2.90820
H          1.61530        1.67930       -4.54950
H         -0.01000       -0.99030       -4.42520
H         -0.51580        0.59750       -5.08620
H         -1.52000       -0.19540       -3.82920
H          0.32070        2.74150       -2.36180
H         -1.32750        1.95110       -2.29360
H         -0.54640        2.56740       -3.79630
H          3.23180       -1.27110       -2.43830
H          4.93060        1.28920       -2.28770
H          4.64740        0.23530       -3.80130
H          5.92210       -1.21650       -1.68380
H          8.00490       -0.84000        0.52370
H          8.02020       -0.06080       -1.10750
H          8.16090       -1.85400       -0.96230
H          5.99920       -2.16240        1.26390
H          6.16460       -3.22190       -0.18300
H          4.60070       -2.39000        0.16410
