54

P          1.08760       -0.04420        0.01930
C         -0.01220        1.31060        0.57350
C          0.65980        0.35030       -1.71300
C          0.32670       -1.51690        0.78070
C         -0.76550       -1.42690        1.66310
C         -1.38300       -2.57990        2.15300
C         -0.90550       -3.84130        1.79790
C          0.16650       -3.95310        0.91510
C          0.74950       -2.80140        0.37970
Pt         3.54760       -0.04420        0.01930
Br         3.62420        1.81420       -1.64920
C          3.50030       -1.63560        1.49960
C          3.86670       -1.95530        2.76700
C          5.69760       -0.04420        0.01930
N          6.50580       -0.08190        1.12430
C          6.13960        0.00280        2.53170
C          6.77850       -1.18330        3.28240
C          6.52000        1.31420        3.23690
C          7.77710       -0.01630        0.69550
C          7.76430        0.06800       -0.65910
N          6.48190        0.09370       -1.08880
C          6.13440        0.13040       -2.51670
C          6.72020        1.41400       -3.12130
C          6.58910       -1.15360       -3.22880
H         -1.08060        1.14840        0.33970
H          0.33330        2.27270        0.13740
H          0.12390        1.41480        1.67410
H         -0.44960        0.27420       -1.81110
H          1.07590       -0.43470       -2.37600
H          0.95980        1.35770       -2.04530
H         -1.18200       -0.48070        1.96020
H         -2.23930       -2.49050        2.80650
H         -1.37880       -4.73060        2.19210
H          0.53410       -4.93230        0.63190
H          1.54930       -2.92250       -0.34260
H          2.95480       -2.44610        1.12150
H          4.28300       -1.34020        3.54560
H          3.60900       -2.93130        3.16530
H          5.05880        0.12030        2.53080
H          7.88420       -1.08280        3.28130
H          6.52960       -2.14010        2.77760
H          6.44480       -1.22280        4.33990
H          7.61260        1.48120        3.27960
H          6.13520        1.26500        4.28510
H          6.01740        2.18420        2.76060
H          8.65520        0.00420        1.32830
H          8.64260        0.12320       -1.28810
H          5.05440        0.10170       -2.68930
H          7.81800        1.47240       -2.97250
H          6.27290        2.29120       -2.60680
H          6.49760        1.48580       -4.20300
H          7.63900       -1.42790       -3.00880
H          6.45770       -1.05040       -4.32750
H          5.93430       -1.99560       -2.90330
