61

P          1.02800       -0.05880        0.07590
C          0.31030        0.92450       -1.37040
C          1.09890        1.73460       -2.31080
C          2.58820        2.03930       -2.27270
C          0.45170        2.42360       -3.36330
C         -0.92410        2.38850       -3.50190
C         -1.68540        1.69650       -2.57470
C         -1.08240        1.00300       -1.52530
C          0.60190       -1.78230       -0.41250
C          1.35930       -2.89230        0.07700
C          2.58720       -2.76740        0.94180
C          0.92430       -4.20760       -0.17880
C         -0.27360       -4.45110       -0.84260
C         -1.05610       -3.38880       -1.25340
C         -0.62820       -2.08680       -1.04230
C          0.12490        0.68830        1.52100
C         -0.25820        2.05930        1.69140
C          0.05820        3.17960        0.75100
C         -1.02150        2.44120        2.81440
C         -1.40660        1.52030        3.77860
C         -1.04250        0.18910        3.63920
C         -0.29370       -0.22470        2.52640
Pt         3.48800       -0.05880        0.07590
Br         3.56520       -1.39020       -2.04430
C          3.46460        1.06990        1.89320
C          4.44350        1.44710        2.74080
N          5.58800       -0.05880        0.07590
C          6.28020        1.07360        0.39080
C          7.66930        1.12530        0.24740
C          8.36090       -0.02500       -0.12860
Cl        10.10740       -0.00300       -0.27570
C          7.65140       -1.18930       -0.40990
C          6.25800       -1.16450       -0.36320
H          3.10710        1.69910       -1.36420
H          2.72040        3.15350       -2.30010
H          3.10390        1.66840       -3.18790
H          1.01270        3.03070       -4.07400
H         -1.40410        2.93530       -4.30600
H         -2.76050        1.70490       -2.65880
H         -1.73100        0.53620       -0.80860
H          2.85210       -1.73450        1.19800
H          3.45580       -3.25740        0.45540
H          2.38930       -3.27080        1.91200
H          1.49530       -5.05460        0.17870
H         -0.61930       -5.46220       -1.00660
H         -2.01750       -3.56400       -1.72150
H         -1.32940       -1.36900       -1.36360
H          0.78320        2.92140       -0.02520
H          0.50180        4.02710        1.31290
H         -0.89670        3.51820        0.29170
H         -1.32390        3.47390        2.94660
H         -1.99400        1.84510        4.63150
H         -1.35670       -0.52130        4.39660
H         -0.05260       -1.27820        2.45980
H          2.47480        1.34610        2.23730
H          5.48310        1.20660        2.64870
H          4.16570        1.98350        3.64320
H          5.75120        1.98870        0.61670
H          8.19780        2.05590        0.41050
H          8.16830       -2.10280       -0.67600
H          5.71900       -2.07550       -0.57590
