57

P          1.06830       -0.06200        0.03860
C         -0.22130       -0.35040        1.29980
C          0.85000        1.74250       -0.03980
C          0.28250       -1.11190       -1.22710
Pt         3.52830       -0.06200        0.03860
Br         3.52830        0.54880       -2.47830
C          3.52830       -0.56900        2.12800
C          3.81430        0.13000        3.21320
C          5.67830       -0.06200        0.03860
N          6.43200       -1.18300        0.13060
C          5.89350       -2.55430        0.11960
C          6.34260       -3.29710       -1.15060
C          6.26810       -3.32670        1.38370
C          7.71360       -0.74610        0.12420
C          7.72340        0.62280        0.05510
C          8.91080        1.36970        0.07830
C         10.11940        0.66800        0.10750
C         10.12840       -0.74080        0.14220
C          8.91800       -1.46430        0.15420
N          6.45950        1.07520        0.00190
C          6.05760        2.50060        0.04070
C          5.96870        3.07720        1.46050
C          6.16180        2.27930        2.61110
C          5.95420        2.79840        3.89900
C          5.58840        4.13080        4.07090
C          5.45660        4.95950        2.95660
C          5.64470        4.44030        1.66290
H         -1.23200       -0.05770        0.95690
H          0.03930        0.23840        2.20740
H         -0.21140       -1.42260        1.58990
H         -0.23460        1.97920       -0.10480
H          1.33780        2.13500       -0.95430
H          1.28010        2.22800        0.85830
H         -0.81310       -0.89460       -1.22660
H          0.41710       -2.18620       -0.99890
H          0.65480       -0.85720       -2.23660
H          3.25090       -1.60680        2.28430
H          4.08110        1.15620        3.17260
H          3.76160       -0.37230        4.17930
H          4.78220       -2.49890        0.07990
H          7.44170       -3.42490       -1.19060
H          6.02920       -2.73110       -2.05470
H          5.87850       -4.30490       -1.19250
H          7.36340       -3.45290        1.48200
H          5.80400       -4.33570        1.35260
H          5.88630       -2.78940        2.27570
H          8.90510        2.45170        0.04730
H         11.05560        1.21200        0.10450
H         11.07180       -1.26600        0.16200
H          8.95860       -2.54130        0.18900
H          5.07130        2.63250       -0.45020
H          6.79020        3.10100       -0.54380
H          6.41660        1.23360        2.52470
H          6.04740        2.15290        4.76350
H          5.40640        4.51810        5.06790
H          5.19050        6.00040        3.10120
H          5.51710        5.10480        0.81880
