40

P          1.05350       -0.07600        0.03690
C         -0.20130        1.24760        0.18000
C          0.76580       -0.41490       -1.73240
C          0.31590       -1.14480        1.31910
Pt         3.51350       -0.07600        0.03690
Br         3.51350        1.47870       -2.03460
C          3.51350       -1.36650        1.75660
C          3.23770       -2.66460        1.66010
P          5.97350       -0.07600        0.03690
N          7.05820        1.32320        0.09100
C          6.87300        1.98640        1.38160
C          8.48220        1.05700       -0.19490
O          6.84690       -0.95120        1.22020
C          6.62870       -2.33060        1.07270
O          6.07200        0.17840       -1.64400
C          5.77310       -1.03010       -2.29790
H         -1.22640        0.87960       -0.04300
H          0.06640        2.04800       -0.53230
H         -0.15570        1.67180        1.19660
H         -0.32200       -0.54970       -1.90970
H          1.29310       -1.34310       -2.02830
H          1.09030        0.42680       -2.36880
H         -0.78400       -1.18630        1.14830
H          0.49890       -0.73130        2.33060
H          0.68480       -2.18110        1.22730
H          3.74110       -0.93500        2.72570
H          3.00940       -3.10640        0.69570
H          3.24330       -3.28600        2.54910
H          5.78030        2.10710        1.60840
H          7.30200        3.00850        1.36540
H          7.32720        1.40630        2.21520
H          8.59040        0.67590       -1.22260
H          8.91760        0.36240        0.54400
H          9.02690        2.02590       -0.14310
H          7.55680       -2.85810        1.36940
H          6.40160       -2.65490        0.03200
H          5.84670       -2.65900        1.77710
H          5.40270       -0.78410       -3.31370
H          4.94580       -1.60390       -1.81810
H          6.69130       -1.64640       -2.40280
