87

P          0.97420       -0.06610       -0.07050
C          0.41190       -0.68650       -1.74930
C         -0.62660       -1.64350       -1.85270
C         -1.07350       -2.14050       -3.08150
C         -0.50130       -1.69390       -4.26280
C          0.49830       -0.72910       -4.21290
C          0.94230       -0.22370       -2.97720
C          0.62820       -0.94180        1.56650
C         -0.26600       -2.04400        1.67980
C         -0.53110       -2.66730        2.90550
C          0.11260       -2.24480        4.05910
C          1.03670       -1.20830        3.98310
C          1.29300       -0.57460        2.75770
C         -0.08640        1.52340       -0.13220
C         -1.61740        1.37530       -0.21750
C         -2.17900        0.84240        1.09590
C         -1.83650        1.77940        2.27500
C         -0.36140        2.20820        2.33170
C          0.20450        2.59410        0.96270
Pt         3.43420       -0.06610       -0.07050
Br         3.43420        1.88100       -1.77830
C          3.43420       -1.68240        1.34730
C          2.99820       -2.92780        1.14310
C          5.58420       -0.06610       -0.07050
N          6.48110       -1.04320        0.46030
C          6.25630       -2.39500        1.05020
C          7.08260       -2.89950        2.26330
C          6.42420       -4.16380        2.87040
C          7.21920       -4.65920        4.07010
C          7.75000       -0.58200        0.20760
C          7.66260        0.62840       -0.37760
C          8.82620        1.36360       -0.73150
C         10.08090        0.81150       -0.48060
C         10.17090       -0.45080        0.10290
C          9.00730       -1.15520        0.44430
N          6.38010        0.98840       -0.54260
C          6.13310        2.37340       -1.00640
C          6.44810        2.55860       -2.48820
C          6.89700        1.47770       -3.27690
C          7.36290        1.68750       -4.57110
C          7.35610        2.97020       -5.11570
C          6.84500        4.04080       -4.37590
C          6.39140        3.83920       -3.06530
H         -1.14340       -2.01530       -1.01190
H         -1.87210       -2.87490       -3.11420
H         -0.84690       -2.08940       -5.21410
H          0.92830       -0.37270       -5.14290
H          1.69710        0.51560       -3.02320
H         -0.80850       -2.44710        0.86910
H         -1.24550       -3.48280        2.96040
H         -0.09750       -2.72760        5.00670
H          1.55310       -0.89180        4.87930
H          2.02570        0.22200        2.74190
H          0.23110        2.00990       -1.08210
H         -1.90870        0.74430       -1.07840
H         -2.06650        2.38330       -0.39520
H         -1.78240       -0.16180        1.24130
H         -3.28110        0.73700        1.02680
H         -2.11030        1.28010        3.23310
H         -2.44090        2.69820        2.16790
H          0.21190        1.40920        2.70980
H         -0.21220        3.01420        3.08070
H          1.29080        2.82350        1.02760
H         -0.30330        3.54410        0.67450
H          3.74100       -1.40110        2.35330
H          2.62340       -3.25970        0.18590
H          3.01080       -3.61860        1.98530
H          6.05870       -3.16060        0.26780
H          5.46720       -2.28980        1.68960
H          7.13420       -2.10210        3.04550
H          8.08300       -3.23910        2.00910
H          6.39350       -4.96320        2.09800
H          5.37920       -3.96190        3.19960
H          8.26720       -4.86460        3.76730
H          6.76780       -5.59510        4.46020
H          7.21030       -3.88970        4.87080
H          8.79040        2.33970       -1.20230
H         10.97910        1.35280       -0.75840
H         11.14220       -0.88690        0.29160
H          9.18440       -2.10810        0.86130
H          6.83300        3.04690       -0.47150
H          5.25990        2.84960       -0.53260
H          6.94030        0.47010       -2.88970
H          7.75340        0.85170       -5.13700
H          7.74980        3.13010       -6.11030
H          6.82940        5.03210       -4.80990
H          6.02960        4.68560       -2.49480
