39

P          0.96000       -0.02470       -0.08820
C         -0.16280        1.29470        0.48330
C          0.64870        0.19300       -1.87160
C          0.12110       -1.35390        0.83230
Pt         3.42000       -0.02470       -0.08820
Br         3.40240        2.12690       -1.34000
C          3.36680       -1.63190        1.23360
C          3.50160       -2.90960        0.90030
N          5.52000       -0.02470       -0.08820
C          6.37870        0.93200       -0.51200
N          7.66550        0.61610       -0.21240
C          8.84450        1.44330       -0.32930
C          8.74490        2.80780       -0.67540
C          9.87490        3.63200       -0.69170
C         11.13120        3.11320       -0.36390
C         11.25020        1.76750       -0.02680
C         10.13090        0.93690       -0.00100
C          7.61140       -0.61880        0.33470
C          6.29800       -0.99530        0.43230
H         -1.22130        1.11190        0.22350
H          0.17120        2.25410        0.02810
H         -0.04850        1.40540        1.58370
H         -0.44790        0.20650       -2.04820
H          1.08370       -0.65910       -2.43080
H          1.05840        1.14390       -2.25390
H         -0.97690       -1.25300        0.65740
H          0.30600       -1.26470        1.92000
H          0.42200       -2.34650        0.44870
H          3.23980       -1.37510        2.28280
H          3.64720       -3.20530       -0.12850
H          3.47870       -3.66010        1.68750
H          6.07280        1.87260       -0.93470
H          7.79010        3.25610       -0.91070
H          9.77780        4.67940       -0.94370
H         11.99980        3.75410       -0.36670
H         12.22650        1.36320        0.23330
H         10.27650       -0.09070        0.28430
H          8.44520       -1.19590        0.70280
H          5.95300       -1.91790        0.86700
