77

P          1.01010       -0.01350       -0.09860
C         -0.02480       -1.34020       -1.10470
C          0.11800       -1.43780       -2.68680
C          1.23390       -2.31950       -3.28200
C          1.37680       -3.69820       -2.53310
C          1.18680       -3.68220       -0.97950
C         -0.03180       -2.82920       -0.60110
C          0.32910       -0.34190        1.66000
C          0.77460        0.61260        2.78730
C          0.07860        1.98940        2.72660
C         -1.42490        1.79700        2.95190
C         -1.98670        0.88270        1.87080
C         -1.22870       -0.46530        1.82090
C          0.46770        1.61410       -0.87290
C         -0.83050        1.95230       -1.45460
C         -2.00620        1.02680       -1.74200
C         -1.08930        3.28800       -1.83990
C         -0.14110        4.28610       -1.69120
C          1.10830        3.96970       -1.19650
C          1.40560        2.66390       -0.81250
Pt         3.47010       -0.01350       -0.09860
Br         3.63370        1.86880        1.62120
C          3.55010       -1.43810       -1.54420
C          4.34290       -1.97990       -2.47930
N          5.57010       -0.01350       -0.09860
C          6.37920        0.23270        0.90940
C          6.05950        0.10160        2.38440
C          4.84960       -0.46230        2.84870
C          4.62810       -0.68530        4.21300
C          5.63750       -0.41840        5.14050
C          6.85900        0.08380        4.70790
C          7.06640        0.35120        3.35570
N          7.74340        0.23330        0.54190
C          7.87760       -0.14220       -0.80690
C          6.43200       -0.40530       -1.20250
H         -1.05010       -1.05280       -0.92480
H          0.16240       -0.44230       -3.17250
H         -0.79570       -1.95410       -3.05030
H          2.09320       -1.65670       -3.38290
H          1.11610       -2.51660       -4.36630
H          2.32710       -4.22010       -2.78790
H          0.56640       -4.32970       -2.93000
H          2.05600       -3.36960       -0.36670
H          1.03880       -4.73450       -0.65100
H         -0.22810       -2.90370        0.48510
H         -0.88670       -3.33980       -1.10420
H          0.74860       -1.33990        1.90270
H          1.85100        0.66370        2.82620
H          0.51380        0.16280        3.76870
H          0.26110        2.48930        1.75190
H          0.46980        2.64870        3.52860
H         -1.95480        2.77550        2.92780
H         -1.59560        1.34370        3.95410
H         -1.90010        1.43290        0.92920
H         -3.06680        0.69690        2.07270
H         -1.69270       -1.14090        1.08420
H         -1.41890       -0.95070        2.80520
H         -1.74340        0.29210       -2.51100
H         -2.86750        1.55510       -2.20010
H         -2.42650        0.52570       -0.86060
H         -2.04470        3.58040       -2.25920
H         -0.37700        5.30260       -1.98170
H          1.85250        4.74950       -1.09640
H          2.38270        2.49060       -0.44890
H          2.61730       -1.84860       -1.47120
H          5.29050       -1.67000       -2.86340
H          3.99400       -2.81110       -3.08620
H          4.06670       -0.74010        2.15700
H          3.68540       -1.08910        4.55150
H          5.48060       -0.61810        6.19240
H          7.65690        0.25800        5.41900
H          8.04440        0.72200        3.10100
H          8.56580        0.37580        1.13900
H          8.48590       -1.07580       -0.86050
H          8.37160        0.66820       -1.38430
H          6.41290       -1.50240       -1.26390
H          6.20270        0.21590       -2.10080
