77

P          0.98920        0.09810       -0.01640
C         -0.10650       -1.16360       -0.95410
C         -1.62990       -1.08390       -0.76960
C          0.18220       -1.02610       -2.46370
C          0.26780       -2.61300       -0.52610
C          0.60760       -0.42630        1.67810
C          1.46120       -1.31410        2.35430
C          1.07690       -1.86640        3.58570
C         -0.16080       -1.53910        4.15140
C         -1.00770       -0.65250        3.49740
C         -0.62910       -0.10030        2.26530
C          0.51400        1.71790       -0.69890
C         -0.83270        2.13800       -0.65090
C         -1.24800        3.31670       -1.26400
C         -0.31430        4.11800       -1.91810
C          1.03130        3.73460       -1.95230
C          1.44820        2.54160       -1.35390
Pt         3.44920        0.09810       -0.01640
Br         3.44920        2.14930        1.56490
C          3.44920       -1.60470       -1.32900
C          3.68170       -1.61290       -2.64000
P          5.90920        0.09810       -0.01640
O          7.22180       -1.02720        0.04900
C          6.75130       -2.38680       -0.09630
C          7.82260       -3.38140        0.38930
C          5.46670       -2.81760        0.68130
O          6.06480       -0.13750       -1.70710
C          5.68730        0.99780       -2.48130
C          6.30780        2.35560       -2.10540
C          6.11910        0.70470       -3.92950
O          6.51230        1.36310        0.99960
C          7.92130        1.29850        1.21500
C          8.72470        1.65630       -0.04540
C          8.29750        2.28930        2.31640
H         -2.06650       -0.17780       -1.21050
H         -1.92410       -1.22050        0.28650
H         -2.10790       -1.91650       -1.33670
H         -0.15840       -0.04380       -2.84690
H         -0.31690       -1.82880       -3.04930
H          1.25410       -1.10090       -2.67990
H          0.09210       -2.79710        0.55230
H          1.29850       -2.87750       -0.73760
H         -0.31810       -3.37240       -1.08650
H          2.39930       -1.61440        1.91240
H          1.72150       -2.57490        4.09060
H         -0.47010       -1.98210        5.09120
H         -1.97520       -0.40270        3.91880
H         -1.32160        0.55250        1.76320
H         -1.59120        1.55350       -0.16010
H         -2.28920        3.60520       -1.23770
H         -0.63940        5.03350       -2.39750
H          1.74740        4.36340       -2.46390
H          2.48130        2.24150       -1.41220
H          3.28150       -2.57000       -0.88530
H          3.83200       -0.71550       -3.20220
H          3.67440       -2.55610       -3.17840
H          6.60020       -2.54190       -1.18720
H          7.87950       -3.38410        1.50390
H          8.82700       -3.14090       -0.00120
H          7.54880       -4.41710        0.07930
H          5.63650       -3.02050        1.75500
H          5.07600       -3.75620        0.21770
H          4.65960       -2.08240        0.69620
H          4.58870        1.12140       -2.42660
H          7.40050        2.35500       -2.27620
H          6.06280        2.66200       -1.07190
H          5.88400        3.14180       -2.76670
H          7.22760        0.61430       -3.98750
H          5.79680        1.51800       -4.61290
H          5.70180       -0.25200       -4.29940
H          8.23240        0.30740        1.60860
H          8.47980        2.68950       -0.36790
H          8.52380        0.94250       -0.86920
H          9.81460        1.61390        0.15690
H          8.01110        3.32300        2.02660
H          9.39590        2.26210        2.49520
H          7.78540        2.02160        3.26310
