85

P          0.92360       -0.04890        0.04210
C          0.02200        1.56400        0.29040
C         -1.19770        1.88400       -0.36340
C         -1.74360        3.17070       -0.28770
C         -1.10740        4.16390        0.45370
C          0.07740        3.87380        1.11970
C          0.63740        2.59710        1.02360
C          0.27110       -0.20440       -1.64730
C          0.62080        0.74320       -2.63130
C          0.01360        0.72020       -3.88860
C         -0.97170       -0.22910       -4.17460
C         -1.33650       -1.16520       -3.19990
C         -0.71590       -1.16000       -1.94290
C          0.06870       -0.96060        1.39870
C          0.32470       -2.35070        1.56470
O          1.31940       -2.94910        0.85010
C          1.67450       -4.28350        0.93880
C         -0.48290       -3.10760        2.44950
C         -1.52710       -2.51430        3.15060
C         -1.77400       -1.15800        3.00620
C         -0.99110       -0.38780        2.15000
Pt         3.38360       -0.04890        0.04210
Br         3.38360        0.93410        2.43830
C          3.38360       -0.86480       -1.94700
C          4.22900       -1.42600       -2.81870
C          5.53360       -0.04890        0.04210
N          6.33360       -1.13690       -0.15360
C          5.86000       -2.55840       -0.14640
C          6.77410       -3.56090        0.57440
C          6.21570       -4.98790        0.60480
C          7.27860       -5.95460        1.14430
C          7.62160       -0.64660       -0.08690
C          7.55270        0.72170        0.09400
C          8.71330        1.50570        0.17650
C          9.96290        0.87600        0.10780
C         10.04650       -0.51260       -0.05160
C          8.88140       -1.28120       -0.16080
N          6.25860        1.10790        0.17420
C          5.78730        2.51350        0.24100
C          4.98970        2.98270       -0.98590
C          4.61840        2.12240       -2.03320
C          3.84590        2.57100       -3.10640
C          3.45870        3.90700       -3.17910
C          3.85870        4.79720       -2.18180
C          4.61250        4.33880       -1.08830
H         -1.72350        1.16700       -0.97270
H         -2.65180        3.40360       -0.82520
H         -1.52420        5.16190        0.50160
H          0.58090        4.64440        1.69110
H          1.56780        2.45260        1.51510
H          1.34940        1.51040       -2.41010
H          0.28620        1.45550       -4.63530
H         -1.46090       -0.22740       -5.13870
H         -2.12040       -1.88170       -3.41640
H         -1.04270       -1.86610       -1.19080
H          2.53300       -4.49130        0.26990
H          0.82460       -4.93540        0.63500
H          1.97620       -4.53620        1.98080
H         -0.33500       -4.17030        2.58580
H         -2.15690       -3.11080        3.79900
H         -2.59910       -0.70160        3.53870
H         -1.28930        0.64120        2.06980
H          2.41210       -0.89900       -2.35810
H          5.26580       -1.63410       -2.67260
H          3.79430       -1.78500       -3.75980
H          5.74770       -2.95760       -1.16190
H          4.86230       -2.57690        0.36100
H          7.01950       -3.22340        1.60730
H          7.67470       -3.68500       -0.02670
H          5.96170       -5.30750       -0.42980
H          5.30220       -5.03670        1.23210
H          8.19230       -5.91960        0.50810
H          6.89420       -6.99540        1.13230
H          7.56040       -5.68010        2.18210
H          8.69250        2.57790        0.31140
H         10.87250        1.46070        0.17950
H         11.01170       -0.99690       -0.09440
H          9.05510       -2.32620       -0.29470
H          6.65520        3.19700        0.30150
H          5.19310        2.68120        1.15630
H          4.91320        1.09940       -2.03760
H          3.55050        1.87630       -3.88260
H          2.86190        4.25150       -4.01510
H          3.58050        5.84170       -2.25570
H          4.90870        5.04890       -0.32920
