76

P          1.27500        0.00000        0.00000
N          0.34400        1.56200       -0.09370
C          0.77130        2.62460        0.90960
C          0.22590        4.02500        0.58100
C          0.51290        2.34610        2.40830
C         -1.10870        1.45010       -0.21800
C         -1.55030        0.02300       -0.02370
C         -3.09420       -0.01150       -0.05490
C         -1.00910       -0.81740       -1.20890
N          0.47750       -0.85590       -1.36580
C          0.94860       -2.27080       -1.57350
C          0.67660       -3.23650       -0.39710
C          0.31920       -2.93640       -2.81150
N          0.46800       -0.30440        1.58360
C          1.03710       -1.23890        2.60820
C          2.48540       -0.89520        2.97690
C          0.22780       -1.26830        3.92490
C         -1.00410       -0.50180        1.35570
Pt         3.73500        0.00030       -0.00050
Br         3.73540       -2.55920        0.39560
C          3.73470        2.12500       -0.32920
C          3.35360        2.67790       -1.47880
C          5.88500        0.00060       -0.00090
N          6.71550       -1.05830       -0.35700
C          6.42990       -2.36000       -1.01900
C          7.64860       -3.18220       -1.44380
C          7.99260       -0.63610       -0.17990
C          7.96790        0.63640        0.27480
N          6.69570        1.04910        0.37610
C          6.40520        2.32330        1.03810
C          5.62120        2.06120        2.33940
H          1.83590        2.75670        0.86380
H         -0.86560        4.10650        0.75150
H          0.47340        4.30680       -0.46070
H          0.70820        4.77130        1.25540
H         -0.55210        2.14130        2.62560
H          0.83180        3.21220        3.02700
H          1.15790        1.54360        2.78860
H         -1.40750        1.82820       -1.22200
H         -1.63290        2.07900        0.52900
H         -3.47030        0.36870       -1.03260
H         -3.51970        0.63880        0.74070
H         -3.47520       -1.04170        0.09200
H         -1.43250       -0.44500       -2.16680
H         -1.45720       -1.81800       -1.07150
H          2.03890       -2.23820       -1.76730
H         -0.38240       -3.34510       -0.09360
H          1.22140       -2.90450        0.45030
H          1.06830       -4.25390       -0.60620
H         -0.77110       -3.10870       -2.68780
H          0.77360       -3.94270       -2.95610
H          0.49760       -2.33450       -3.72030
H          0.97650       -2.26710        2.26640
H          2.55180        0.02330        3.58860
H          3.10350       -0.71490        2.09360
H          2.92550       -1.73360        3.56080
H          0.27490       -0.29200        4.45040
H          0.64700       -2.05030        4.59750
H         -0.83570       -1.54040        3.76740
H         -1.53920        0.04480        2.16360
H         -1.28070       -1.57330        1.44270
H          3.92420        2.80270        0.48490
H          3.06010        2.07330       -2.32630
H          3.30710        3.76290       -1.55040
H          5.82900       -2.15070       -1.93550
H          5.95640       -3.07160       -0.35130
H          8.31860       -2.62320       -2.12980
H          7.30420       -4.09610       -1.97530
H          8.21010       -3.51120       -0.54200
H          8.88530       -1.19540       -0.38520
H          8.84420        1.21400        0.53640
H          5.95310        3.03920        0.34080
H          7.35070        2.82310        1.34580
H          4.66410        1.53260        2.15090
H          5.40530        3.01680        2.85870
H          6.21580        1.41420        3.02050
