42

C          0.90100       -0.64300       -0.00200
N         -0.36500       -1.10790        0.02570
C         -0.78230       -2.51360        0.06000
C         -1.65960       -2.77020        1.29160
C         -1.53800       -2.88190       -1.22230
C         -1.16010       -0.01710        0.01670
C         -0.36050        1.10290       -0.00240
N          0.93000        0.70610       -0.02640
C          2.12080        1.56220       -0.07320
C          2.07550        2.44430       -1.32560
C          2.22050        2.42700        1.18970
Pt         2.65840       -1.88140       -0.01350
Br         2.49040       -1.77550       -2.49250
C          2.62070       -1.84560        2.10550
C          1.71600       -1.21420        2.86620
O          4.33420       -3.06230       -0.02450
C          4.89350       -3.53700       -1.12250
N          6.02500       -4.21840       -0.86300
C          6.15790       -4.14540        0.46940
C          5.09360       -3.44650        0.98620
H          0.11620       -3.16490        0.12310
H         -2.58340       -2.15270        1.25250
H         -1.10220       -2.51500        2.21740
H         -1.95810       -3.83940        1.34020
H         -2.45170       -2.26200       -1.34000
H         -1.83480       -3.95260       -1.19490
H         -0.88100       -2.72630       -2.10340
H         -2.24070       -0.03360        0.03640
H         -0.69580        2.13150       -0.00880
H          3.03240        0.92470       -0.12130
H          1.17840        3.10050       -1.31120
H          2.03320        1.80770       -2.23430
H          2.97760        3.08830       -1.38230
H          1.33980        3.09670        1.28970
H          3.13670        3.05520        1.14750
H          2.28570        1.78200        2.09100
H          3.35110       -2.36310        2.68860
H          0.89570       -0.64150        2.47090
H          1.79840       -1.27990        3.94890
H          4.51900       -3.41930       -2.12280
H          6.99190       -4.55080        1.02700
H          5.01500       -3.22570        2.02800
