72

P          0.94930       -0.07390        0.04440
C          0.09750        1.29780       -0.97400
C         -1.41790        1.39530       -1.21530
C          0.54880        2.71120       -0.53440
C          0.55140       -1.69930       -0.79810
C         -0.95540       -2.02920       -0.92320
C          1.19360       -1.84000       -2.17250
C          0.44600        0.21330        1.84110
C          0.85500        1.55900        2.46110
C         -1.06550        0.02770        2.10490
Pt         3.40930       -0.07390        0.04440
Br         3.40930       -2.12510        1.62570
C          3.40930        1.62880       -1.26830
C          2.99880        1.54570       -2.53240
P          5.86930       -0.07390        0.04440
C          6.71440       -1.55130        0.64860
C          6.89910       -2.58510       -0.29430
C          7.22980       -3.87860        0.10970
C          7.36150       -4.17300        1.46500
Cl         7.69680       -5.82050        1.97070
C          7.16750       -3.16190        2.41890
C          6.83350       -1.85770        2.01400
C          6.45660        0.30710       -1.61330
C          7.71690        0.89150       -1.79110
C          8.22610        1.09350       -3.07920
C          7.48560        0.69570       -4.19560
Cl         8.14000        0.92000       -5.80840
C          6.23340        0.09650       -4.02300
C          5.72220       -0.10120       -2.73650
C          6.12820        1.29080        1.23280
C          7.37190        1.45060        1.87330
C          7.62010        2.57650        2.69090
C          6.64510        3.56450        2.83840
Cl         6.96330        5.01110        3.78850
C          5.40410        3.40410        2.22340
C          5.14690        2.27270        1.45220
H          0.52670        1.13720       -1.97850
H         -1.98000        1.65190       -0.29610
H         -1.86570        0.55440       -1.72120
H         -1.59500        2.25390       -1.90730
H         -0.09960        3.13160        0.25310
H          0.46110        3.42420       -1.38230
H          1.58070        2.76310       -0.15850
H          0.97380       -2.48850       -0.14270
H         -1.46100       -1.41580       -1.67580
H         -1.49960       -1.96890        0.02830
H         -1.09110       -3.07030       -1.28110
H          0.82000       -1.06150       -2.86890
H          0.93470       -2.83780       -2.59670
H          2.29550       -1.78880       -2.08220
H          0.96560       -0.58100        2.41560
H          0.22980        2.38280        2.12310
H          1.93260        1.76190        2.27690
H          0.68960        1.50690        3.55650
H         -1.67920        0.77470        1.57950
H         -1.29480        0.15180        3.18820
H         -1.41410       -0.97900        1.85090
H          3.74330        2.60970       -0.95570
H          2.64530        0.61060       -2.94420
H          3.01350        2.43110       -3.16210
H          6.71950       -2.41430       -1.34630
H          7.33000       -4.66470       -0.63200
H          7.22660       -3.40560        3.47240
H          6.60180       -1.12320        2.77120
H          8.31540        1.17790       -0.93710
H          9.20310        1.54240       -3.20460
H          5.66410       -0.23150       -4.88500
H          4.76850       -0.60030       -2.61690
H          8.16150        0.73050        1.75020
H          8.57490        2.68710        3.17650
H          4.64190        4.17460        2.31910
H          4.18030        2.19540        1.01460
