87

C          0.90100       -0.64300       -0.00200
N          0.86350        0.75970       -0.06670
C          1.77980        1.85310       -0.41790
C         -0.41480        1.15740        0.06330
C         -1.17000        0.12150        0.23940
N         -0.43640       -0.97750        0.17590
C         -1.06150       -2.16040        0.65540
Pt         2.65840       -1.88140       -0.01350
Br         3.62100       -0.53390        1.97790
C          1.85940       -3.00000       -1.66660
C          0.84110       -2.54080       -2.40150
C          4.41590       -3.11990       -0.02500
N          5.87450       -2.69870        0.09590
C          7.11340       -1.62540        0.28050
C          7.23610       -0.62480        1.39490
C          6.19950       -0.13000        2.05660
C          5.59990        1.14750        1.13080
C          5.92910       -1.19600        3.25070
C          8.25740        0.26100        1.74860
C          9.28310        0.40610        0.94750
C          9.24490       -0.29820       -0.23490
C          8.20440       -1.27070       -0.59800
C          8.33670       -1.53190       -2.05710
C          9.41910       -2.54860       -2.29700
C          7.01770       -1.66480       -2.81140
C          6.47700       -3.87040       -0.17950
C          5.53950       -4.90180       -0.38310
N          4.23830       -4.52040       -0.29270
C          3.07510       -5.60980       -0.29010
C          3.30840       -7.02990       -0.77050
C          4.58840       -7.68590       -1.28480
C          5.35000       -8.25670       -0.05940
C          4.41250       -8.86700       -2.29140
C          2.30760       -8.04040       -0.66390
C          1.07570       -7.84400       -0.22770
C          0.75610       -6.63430        0.20700
C          1.66950       -5.50840        0.28480
C          0.92080       -4.38310        1.06180
C         -0.56370       -4.77610        1.61850
C          1.74070       -3.96920        2.25690
H          2.62070        1.53760       -1.04920
H          1.96790        2.51140        0.44950
H          1.21700        2.53410       -1.12040
H         -0.79640        2.17180        0.04530
H         -2.27180        0.13210        0.44960
H         -2.11050       -2.00400        1.02780
H         -0.52770       -2.29400        1.61590
H         -1.10340       -2.92020       -0.12880
H          2.32600       -3.91090       -2.00870
H          0.37400       -1.58760       -2.20780
H          0.50380       -3.08200       -3.27670
H          5.69200       -0.59260        1.34340
H          4.92250        0.85720        0.23660
H          6.32520        1.69200        0.48660
H          4.91410        1.85230        1.64330
H          5.92450       -2.24570        2.82270
H          4.95980       -1.54430        3.65450
H          5.98010       -0.73000        4.23950
H          8.17900        0.96900        2.60030
H         10.01540        1.16650        1.18590
H         10.02620        0.00240       -0.91140
H          8.69640       -0.58380       -2.52760
H          9.12180       -3.52460       -1.87240
H         10.34920       -2.20160       -1.78650
H          9.62850       -2.60780       -3.38120
H          6.47210       -2.58880       -2.57040
H          7.23940       -1.62990       -3.90550
H          6.37270       -0.77830       -2.59480
H          7.50930       -4.06720       -0.19350
H          5.94670       -5.84980       -0.52720
H          5.09000       -6.95700       -1.93740
H          4.71760       -9.00820        0.46720
H          5.58810       -7.49690        0.71110
H          6.28450       -8.75550       -0.37990
H          4.06320       -9.81440       -1.82130
H          5.39110       -9.13820       -2.72320
H          3.71060       -8.59230       -3.10750
H          2.42940       -9.07350       -0.90630
H          0.35100       -8.65730       -0.18840
H         -0.26550       -6.71790        0.54620
H          0.88060       -3.53380        0.40520
H         -1.04970       -4.14730        2.39920
H         -1.30900       -4.93040        0.79390
H         -1.08580       -4.13150        2.36130
H          1.66560       -4.74180        3.04500
H          1.36490       -2.99850        2.64720
H          2.78770       -3.82530        1.94900
