67

P          1.27500        0.00000        0.00000
N          0.25440        1.49970        0.12240
C          0.63230        2.46010        1.23970
C         -0.00100        3.85970        1.05230
C          0.29570        2.01610        2.68640
C         -1.18300        1.30790       -0.03730
C         -1.52710       -0.15290        0.06740
C         -3.06380       -0.27970        0.09590
C         -0.95820       -0.88140       -1.17750
N          0.50690       -0.69300       -1.46360
C          1.12190       -2.01800       -1.79550
C          0.33710       -2.87940       -2.82800
C          2.50970       -1.82650       -2.41960
N          0.58240       -0.55530        1.53830
C          1.24600       -1.67160        2.26450
C          2.64710       -1.24080        2.73880
C          0.51510       -2.10900        3.53500
C         -0.89760       -0.77190        1.37390
Pt         3.73500        0.00030       -0.00050
Br         3.87130       -2.55570        0.23730
C          3.75430        2.07860       -0.13760
C          3.15340        2.75520       -1.10560
N          5.83500        0.00060       -0.00090
C          5.87680        0.12680        1.46240
N          6.49590        1.05230       -0.58990
C          7.67280        0.70060       -0.96320
C          7.86710       -0.65280       -0.74050
C          6.68780       -1.11540       -0.19780
H          1.71760        2.62930        1.21730
H         -1.10240        3.85570        1.19510
H          0.23820        4.28190        0.05830
H          0.39650        4.55580        1.82660
H         -0.78570        1.80820        2.81600
H          0.55950        2.81630        3.40900
H          0.89960        1.16300        3.03460
H         -1.49640        1.72060       -1.02310
H         -1.75550        1.86360        0.73070
H         -3.50740        0.15840       -0.82490
H         -3.48420        0.28000        0.96300
H         -3.38170       -1.33780        0.17860
H         -1.50710       -0.56530       -2.08970
H         -1.22480       -1.93560       -0.97210
H          1.19090       -2.61810       -0.85470
H          0.30130       -2.37560       -3.81630
H         -0.70190       -3.14290       -2.55280
H          0.84460       -3.86170       -2.94870
H          2.44190       -1.38560       -3.43000
H          3.01210       -2.82090       -2.49380
H          3.13630       -1.14250       -1.83220
H          1.30870       -2.54070        1.56950
H          2.60610       -0.49180        3.55230
H          3.21820       -0.75100        1.94900
H          3.20740       -2.13430        3.10020
H          0.49720       -1.25610        4.27460
H          1.03320       -2.95050        4.02200
H         -0.54830       -2.41410        3.38760
H         -1.40670       -0.33340        2.26020
H         -1.14930       -1.85110        1.35320
H          4.23880        2.63870        0.65960
H          2.62330        2.23830       -1.89280
H          3.16750        3.83840       -1.08220
H          6.86260        0.49720        1.82980
H          5.12480        0.86600        1.79690
H          5.60790       -0.81770        1.99070
H          8.39420        1.37830       -1.39950
H          8.74860       -1.24440       -0.95250
H          6.51370       -2.14070        0.09400
