48

C          0.90100       -0.64300       -0.00200
N         -0.36790       -1.10860        0.05960
C         -0.79240       -2.51080        0.10140
C         -1.67830       -2.75940        1.32780
C         -1.54990       -2.87320       -1.18340
C         -1.16470       -0.02050        0.03770
C         -0.36570        1.10070       -0.03000
N          0.92570        0.70240       -0.06730
C          2.10930        1.56960       -0.12650
C          2.05090        2.43110       -1.38920
C          2.19570        2.44660        1.13140
Pt         2.65840       -1.88140       -0.01350
Br         2.68300       -1.82260       -2.60270
C          2.63810       -1.93030        2.13580
C          1.66210       -1.42320        2.89380
N          4.37500       -3.09110       -0.02470
C          4.58930       -3.98130        0.99150
C          5.78370       -4.70420        1.08930
C          6.00660       -5.66560        2.22100
C          6.77290       -4.49870        0.12760
C          6.54240       -3.61050       -0.92120
C          5.32560       -2.92450       -0.99160
H          0.10260       -3.16680        0.16520
H         -2.59560       -2.13400        1.28220
H         -1.12440       -2.51190        2.25590
H         -1.98440       -3.82460        1.36940
H         -2.45750       -2.24440       -1.30560
H         -1.85670       -3.93990       -1.16200
H         -0.89160       -2.71940       -2.06760
H         -2.24350       -0.03520        0.05970
H         -0.70450        2.12840       -0.05210
H          3.02760        0.94380       -0.16700
H          1.14300        3.07250       -1.38820
H          2.02280        1.77540       -2.28460
H          2.94510        3.08570       -1.45290
H          1.28860        3.07730        1.24950
H          3.08260        3.11420        1.07450
H          2.30310        1.80740        2.03390
H          3.47210       -2.34780        2.68080
H          0.78540       -0.94860        2.48430
H          1.74620       -1.46880        3.97530
H          3.82890       -4.15930        1.73090
H          5.11990       -5.72430        2.88920
H          6.87460       -5.33260        2.82810
H          6.20710       -6.68010        1.81910
H          7.71900       -5.02240        0.19290
H          7.31210       -3.43410       -1.66150
H          5.19600       -2.20110       -1.77830
