68

C          0.90100       -0.64300       -0.00200
N         -0.10030       -0.64060       -0.94410
C         -0.31200       -1.34650       -2.24210
C         -0.59870       -0.32470       -3.37890
C          0.86270       -2.21880       -2.66640
C         -1.01330        0.25850       -0.50590
C         -0.54010        0.83740        0.65330
N          0.63650        0.28520        0.97310
C          1.34390        0.66680        2.21390
C          1.36200       -0.47180        3.23890
C          2.74390        1.18010        1.93200
Pt         2.65840       -1.88140       -0.01350
Br         3.93620       -0.05600       -1.33380
C          1.59780       -3.39680        1.08250
C          0.40660       -3.16290        1.64770
P          4.66930       -3.29850       -0.02670
O          5.18600       -4.85430       -0.56870
C          6.55110       -5.14920       -0.72270
C          6.94820       -6.04980        0.43880
C          6.72400       -5.93930       -2.03770
O          5.97590       -2.32840       -0.57270
C          6.46910       -1.43140        0.43190
C          6.65830       -2.00150        1.85590
C          7.83410       -0.91690       -0.03840
O          4.65450       -4.20420        1.49330
C          3.76500       -5.27490        1.82060
C          3.27560       -6.18670        0.63960
C          4.25480       -6.16700        2.95440
H         -1.21390       -1.98590       -2.14930
H          0.24920        0.38200       -3.52340
H         -1.51380        0.26850       -3.18860
H         -0.77920       -0.85110       -4.34570
H          1.77620       -1.60920       -2.83910
H          0.61040       -2.72040       -3.63190
H          1.06310       -3.00740       -1.91720
H         -1.92150        0.54110       -1.01410
H         -1.05400        1.60980        1.20400
H          0.77360        1.49640        2.68520
H          1.96580       -1.32500        2.87710
H          0.32450       -0.80560        3.45960
H          1.80220       -0.11510        4.19210
H          3.40180        0.35800        1.59220
H          3.15940        1.61620        2.86620
H          2.70130        1.97960        1.16120
H          1.79020       -4.39020        1.08330
H         -0.06230       -2.19540        1.65810
H         -0.15680       -3.97240        2.10170
H          7.21180       -4.26490       -0.76500
H          6.31810       -6.96670        0.44440
H          6.80590       -5.51270        1.39570
H          8.00680       -6.35510        0.35030
H          6.03240       -6.81310       -2.06840
H          7.76180       -6.32730       -2.13220
H          6.50830       -5.30700       -2.92500
H          5.80210       -0.55300        0.51520
H          7.33660       -2.87990        1.85060
H          5.69260       -2.25870        2.32820
H          7.09180       -1.21890        2.51650
H          8.56680       -1.75200       -0.08570
H          8.22430       -0.14640        0.66320
H          7.75250       -0.45650       -1.04460
H          3.01310       -4.78850        2.45460
H          4.07960       -6.83910        0.25080
H          2.88370       -5.61330       -0.23100
H          2.45270       -6.84860        0.97740
H          5.09380       -6.81940        2.66300
H          3.39490       -6.81260        3.26670
H          4.52670       -5.55050        3.83990
