55

C          0.90100       -0.64300       -0.00200
N         -0.39860       -1.12580        0.13620
C         -1.00240       -2.52660        0.16670
C         -0.84060       -3.31230        1.48780
C         -2.54560       -2.47300       -0.04930
C         -0.40600       -3.38150       -0.96730
C         -1.16430       -0.00990        0.05880
C         -0.38450        1.09340       -0.09070
N          0.91410        0.73440       -0.13580
C          2.04250        1.73330       -0.15280
C          1.54490        3.19850       -0.14990
C          2.92070        1.51050        1.09750
C          2.91370        1.64210       -1.38670
Pt         2.65840       -1.88140       -0.01350
Br         3.22490       -1.20820       -2.39690
C          2.10680       -2.35930        1.98880
C          1.29400       -1.67210        2.78260
N          4.37500       -3.09110       -0.02470
C          4.65220       -4.15710        0.85510
O          3.79420       -4.50420        1.82270
C          3.91350       -5.41360        2.86080
C          5.85330       -4.90500        0.78020
C          6.81100       -4.61490       -0.15860
C          6.59050       -3.55870       -1.00610
C          5.40200       -2.81910       -0.92280
H         -1.22770       -2.73850        2.35680
H          0.16970       -3.69340        1.65170
H         -1.42210       -4.26180        1.44290
H         -3.04040       -1.91180        0.77440
H         -2.99960       -3.48880       -0.05000
H         -2.80020       -1.99990       -1.02120
H          0.69080       -3.49050       -0.83290
H         -0.60580       -2.92860       -1.95990
H         -0.84810       -4.40490       -0.96020
H         -2.24180        0.04230        0.09670
H         -0.77470        2.09930       -0.14700
H          0.96100        3.42430        0.76370
H          0.92830        3.40160       -1.05320
H          2.40860        3.90170       -0.17810
H          2.33460        1.68090        2.02260
H          3.79790        2.19400        1.09360
H          3.30760        0.46660        1.12050
H          2.30730        1.65080       -2.32440
H          3.55540        0.80560       -1.21340
H          3.68290        2.43620       -1.44500
H          2.45240       -3.15680        2.55800
H          0.87640       -0.71810        2.51840
H          1.10440       -2.07090        3.78630
H          3.11100       -5.19570        3.59840
H          4.87560       -5.30720        3.41330
H          3.76420       -6.43970        2.47850
H          6.06030       -5.72100        1.46140
H          7.72870       -5.19270       -0.20960
H          7.35560       -3.29710       -1.72710
H          5.41310       -1.99860       -1.59480
