49

P          0.94160        0.07900        0.01850
C          0.11170       -0.39130        1.66040
C         -1.40390       -0.30170        1.92260
C          0.52500       -1.80460        2.13770
C          0.56550        1.88690       -0.28050
C         -0.93650        2.23720       -0.38740
C          1.21270        2.81450        0.74120
C          0.45550       -1.22810       -1.24910
C          0.90150       -2.66560       -0.95360
C         -1.05140       -1.25220       -1.56500
Pt         3.40160        0.07900        0.01850
Br         3.40160        0.77100       -2.47740
C          3.40160       -0.49540        2.09030
C          3.95050       -1.63500        2.51940
N          5.50160        0.07900        0.01850
C          6.20260        0.07350       -1.14680
C          7.60570       -0.02380       -1.17880
C          8.32160       -0.04740        0.02790
Cl        10.05750       -0.16300        0.02640
C          7.58920        0.00480        1.21840
C          6.22230        0.04080        1.18960
H          0.58530        0.31650        2.37430
H         -1.98450       -1.01860        1.32060
H         -1.82560        0.69820        1.84220
H         -1.58870       -0.57760        2.98600
H         -0.15670       -2.58310        1.75560
H          0.45300       -1.87420        3.24450
H          1.53810       -2.08900        1.84040
H          0.99640        2.12300       -1.27570
H         -1.44880        2.21030        0.57840
H         -1.48070        1.61440       -1.11090
H         -1.06080        3.28340       -0.73230
H          0.82780        2.61020        1.76090
H          0.96860        3.87120        0.48410
H          2.31390        2.70010        0.71440
H          0.97150       -0.92790       -2.18320
H          0.29700       -3.13890       -0.17040
H          1.97810       -2.70360       -0.69550
H          0.72210       -3.28800       -1.84830
H         -1.65460       -1.55110       -0.69060
H         -1.27350       -1.99420       -2.36050
H         -1.41240       -0.29120       -1.95070
H          2.91460        0.15970        2.80410
H          4.43800       -2.30620        1.82210
H          3.92100       -1.88430        3.57570
H          5.75240        0.04880       -2.12110
H          8.13730       -0.08390       -2.11300
H          8.13180       -0.00890        2.16380
H          5.73800        0.10470        2.15230
