63

C          0.90100       -0.64300       -0.00200
N          0.16010       -0.34470        1.09650
C          0.24410       -0.89810        2.44580
C         -0.83340        0.46330        0.68510
C         -0.70950        0.64370       -0.67090
N          0.34970       -0.07420       -1.10120
C          0.88040       -0.00840       -2.45770
Pt         2.65840       -1.88140       -0.01350
Br         1.53390       -3.46130       -1.73030
C          3.59190       -0.57000        1.41170
C          3.11750        0.51120        2.03480
C          4.41590       -3.11990       -0.02500
N          5.78550       -2.77720        0.22440
C          6.71330       -1.52170        0.09090
C          6.37720       -0.18290        0.78350
C          6.47420       -0.33700        2.33740
C          7.89860       -0.55080        2.76730
C          8.44590       -1.78690        2.03890
C          8.23880       -1.70090        0.50850
C          6.42800       -3.97850        0.26030
C          5.55430       -4.99760        0.06250
N          4.32910       -4.51590       -0.10730
C          3.14350       -5.39620       -0.19600
C          3.02790       -6.00060       -1.61860
C          3.79270       -7.30340       -1.81290
C          3.23580       -8.33400       -0.83370
C          3.52850       -7.87030        0.60400
C          2.89280       -6.50100        0.88750
H          0.99390       -1.71170        2.49690
H         -0.74310       -1.34860        2.69830
H          0.45310       -0.10510        3.19290
H         -1.60880        0.87290        1.32020
H         -1.34070        1.26260       -1.29450
H          0.75680        1.02980       -2.84280
H          0.33000       -0.69520       -3.12770
H          1.97390       -0.20920       -2.45860
H          4.43960       -1.02230        1.62420
H          2.15250        0.93260        1.81060
H          3.70770        0.99390        2.80520
H          6.71300       -1.28010       -1.00350
H          5.46200        0.19980        0.30040
H          7.07070        0.62560        0.47000
H          5.98560       -1.25510        2.74920
H          6.04580        0.54890        2.83830
H          7.90940       -0.70320        3.86930
H          8.45770        0.37160        2.52390
H          7.93950       -2.69950        2.41240
H          9.53020       -1.85690        2.29010
H          8.73940       -2.52930       -0.02060
H          8.79720       -0.79560        0.16770
H          7.47300       -4.15100        0.36750
H          5.83180       -6.04250        0.08360
H          2.33550       -4.73450        0.12140
H          3.38740       -5.26800       -2.38070
H          1.96110       -6.22820       -1.82430
H          4.88270       -7.16800       -1.66330
H          3.63200       -7.65350       -2.85570
H          3.70490       -9.32210       -1.01720
H          2.13920       -8.44400       -0.99690
H          4.62090       -7.83730        0.76240
H          3.09850       -8.61730        1.30880
H          3.11110       -6.13960        1.91160
H          1.79510       -6.70580        0.84900
