47

C         -0.25050       -1.31390        0.15070
N          0.77310       -0.45600       -0.25810
C          2.01850       -0.76870       -0.96120
C          0.43030        0.82110        0.11980
C          1.20530        2.11850       -0.08280
C         -0.78460        0.76590        0.75480
C         -1.51770        1.93630        1.36830
N         -1.20770       -0.52670        0.75900
C         -2.43260       -1.00930        1.36160
Pt        -0.49020       -3.48260       -0.01010
Br         0.42530       -3.62170        2.40880
C         -1.25010       -3.36720       -2.01800
C         -1.47580       -2.21020       -2.64280
N         -0.60440       -5.54220       -0.14690
C          0.31220       -6.45900        0.34230
N          1.65870       -6.05890        0.70060
C          2.26630       -4.88070        0.09440
C          2.56900       -6.88280        1.49410
C         -0.01510       -7.84550        0.32290
C         -1.23250       -8.27930       -0.18180
C         -2.12530       -7.35800       -0.69270
C         -1.79690       -6.00300       -0.67990
H          2.09380       -1.84830       -1.18320
H          2.89410       -0.45170       -0.34990
H          2.06170       -0.19810       -1.91830
H          2.16720        2.00260       -0.61850
H          1.41610        2.59370        0.90270
H          0.58110        2.84240       -0.65670
H         -0.97210        2.89720        1.25100
H         -1.64180        1.75940        2.45670
H         -2.51240        2.05250        0.89300
H         -3.00390       -0.17840        1.82580
H         -2.17530       -1.73540        2.15690
H         -3.06210       -1.47990        0.58350
H         -1.37340       -4.27150       -2.60300
H         -1.29390       -1.25610       -2.17110
H         -1.79120       -2.21250       -3.68160
H          1.57330       -4.34340       -0.58050
H          3.13370       -5.18920       -0.53440
H          2.66460       -4.19930        0.87040
H          2.16360       -7.85860        1.80440
H          2.82300       -6.34330        2.42770
H          3.50930       -7.07880        0.92970
H          0.65510       -8.62780        0.64090
H         -1.47510       -9.33610       -0.19560
H         -3.08060       -7.69010       -1.08150
H         -2.55170       -5.31300       -1.01480
