27

C         -0.32800       -1.08200        0.00300
N          0.88400       -0.64830        0.40620
H          1.68920       -1.23890        0.70880
C          0.88000        0.67940        0.18270
Cl         2.25290        1.73930        0.42450
C         -0.38090        1.04410       -0.24790
Cl        -0.95690        2.67120       -0.55370
N         -1.11090       -0.07310       -0.42520
Pt        -0.94440       -3.14170        0.01670
Br        -0.79860       -3.32290        2.48200
C         -0.97780       -2.66220       -2.10740
C         -1.20910       -3.33160       -3.24400
O         -1.53210       -5.10560        0.02970
C         -1.58750       -5.72160       -1.20910
C         -0.14350       -5.83850       -1.74660
C         -2.12020       -7.14680       -1.03990
H         -2.10820       -0.13250       -0.71760
H         -0.68510       -1.63690       -2.32330
H         -1.47240       -4.35920       -3.40270
H         -1.09590       -2.80810       -4.18480
H         -2.33720       -5.19530       -1.81180
H          0.47410       -6.46560       -1.06720
H          0.37100       -4.86020       -1.79350
H         -0.13250       -6.30130       -2.75540
H         -1.44780       -7.74780       -0.38590
H         -2.17640       -7.64670       -2.03270
H         -3.13250       -7.13500       -0.59010
