66

C          2.32700        0.03400        0.00000
N          1.54710        1.14560       -0.05560
C          2.04670        2.52920       -0.08920
C          1.60020        3.25300       -1.36100
C          1.61940        3.29400        1.17520
C          0.27270        0.67890       -0.02560
C          0.29910       -0.68930        0.06130
C         -0.86950       -1.45560        0.09390
C         -2.09890       -0.78210        0.04200
C         -2.13610        0.62480       -0.02230
C         -0.94550        1.37160       -0.05500
N          1.57930       -1.11260        0.12790
C          1.99910       -2.52570        0.29050
C          1.87730       -3.18290       -1.06420
C          2.72360       -2.69130       -2.02540
C          2.61220       -3.04650       -3.35920
C          1.63690       -3.96760       -3.73460
C          0.81670       -4.55520       -2.74810
C          0.94010       -4.16860       -1.40480
Pt         4.47690        0.05800        0.00140
Br         4.47920       -0.00060       -2.58790
C          4.47490        0.10670        2.15090
C          3.38320        0.18220        2.91590
C          6.62670        0.08210        0.00280
N          7.32360       -0.87330       -0.66050
C          6.83450       -2.04040       -1.38160
C          8.61990       -0.64260       -0.45250
C          8.73540        0.44950        0.34350
N          7.50760        0.93950        0.66400
C          7.38630        2.18440        1.45890
C          8.56120        2.85280        1.94490
C          8.51310        4.06460        2.63630
C          7.29820        4.67240        2.89110
C          6.12330        4.06110        2.45570
C          6.15570        2.83410        1.74500
H          3.15900        2.50740       -0.09220
H          0.49970        3.33830       -1.42870
H          1.96750        2.70180       -2.25100
H          2.02270        4.28000       -1.37860
H          0.51910        3.38450        1.26070
H          2.04710        4.31920        1.16660
H          1.99520        2.77340        2.08130
H         -0.84520       -2.53500        0.15390
H         -3.02240       -1.34610        0.05980
H         -3.09070        1.13370       -0.04700
H         -1.00380        2.44640       -0.10140
H          1.35890       -3.01870        1.05390
H          3.05150       -2.59240        0.65000
H          3.44970       -2.00920       -1.68960
H          3.26470       -2.58770       -4.09310
H          1.52600       -4.22240       -4.77870
H          0.08450       -5.28610       -3.04760
H          0.28640       -4.60180       -0.66130
H          5.44000        0.05800        2.64470
H          2.38570        0.22670        2.50660
H          3.48580        0.19390        3.99590
H          5.73630       -2.10360       -1.33520
H          7.23480       -2.95090       -0.88430
H          7.19350       -2.02180       -2.43250
H          9.43970       -1.23980       -0.83180
H          9.69720        0.82430        0.64340
H          9.55980        2.48360        1.79680
H          9.43560        4.53740        2.96490
H          7.27920        5.62030        3.42360
H          5.18230        4.55620        2.67020
H          5.21990        2.43080        1.41070
