71

C          1.02400       -0.65300       -0.05500
N          1.02090        0.67370       -0.22430
C          2.07710        1.70680       -0.56260
C          3.31830        1.46330       -1.28300
C          3.77980        0.18230       -1.75050
C          4.21810        2.46910       -1.65400
C          3.98990        3.78230       -1.34680
C          4.93700        4.85040       -1.81490
C          2.87260        4.09670       -0.60090
C          1.92880        3.11830       -0.19640
C          0.83490        3.69910        0.66750
C         -0.32990        1.09920        0.04490
C         -1.19370       -0.13250        0.10730
N         -0.27420       -1.20420        0.37990
C         -0.72540       -2.55510        0.84160
C          0.04260       -3.74750        0.63090
C          1.24840       -3.77650       -0.17610
C         -0.34000       -5.01040        1.09690
C         -1.50830       -5.20870        1.79720
C         -1.87740       -6.58540        2.26020
C         -2.32910       -4.09310        2.01140
C         -1.98190       -2.79780        1.57360
C         -3.01720       -1.75840        1.92570
Pt         2.78020       -1.86970       -0.29550
Br         2.39340       -2.24620       -2.89580
C          3.17180       -1.69220        1.77210
C          2.73270       -0.67370        2.50880
N          4.49560       -3.05820       -0.53040
C          4.88160       -3.91420        0.46380
C          5.99030       -4.74570        0.31510
C          6.84740       -4.55650       -0.77390
O          8.00250       -5.25330       -0.92770
C          8.34270       -6.40230       -0.24290
C          6.49510       -3.61570       -1.74040
C          5.25860       -2.95820       -1.65920
H          2.95530       -0.38710       -1.51640
H          4.69500       -0.13320       -1.20550
H          3.94270        0.17190       -2.85260
H          5.11260        2.22250       -2.22500
H          5.77350        4.42780       -2.41560
H          5.36550        5.39090       -0.94740
H          4.38760        5.56420       -2.46430
H          2.73880        5.13870       -0.34130
H          0.98020        4.77540        0.88910
H          0.86100        3.20020        1.65820
H         -0.15450        3.64940        0.18110
H         -0.74080        1.77450       -0.73750
H         -0.34060        1.54200        1.06100
H         -1.65440       -0.34860       -0.87620
H         -1.95540        0.12240        0.85070
H          1.05420       -3.04970       -0.95650
H          1.37350       -4.73200       -0.72640
H          2.10340       -3.67320        0.50220
H          0.28730       -5.87270        0.89840
H         -1.09340       -7.32770        1.98440
H         -2.82220       -6.90580        1.77760
H         -1.98930       -6.60970        3.36170
H         -3.26630       -4.27510        2.55330
H         -3.87370       -2.17120        2.50320
H         -3.47710       -1.34560        1.00040
H         -2.57880       -0.97540        2.57600
H          3.84550       -2.36000        2.28300
H          2.13330        0.11930        2.09290
H          3.03900       -0.59460        3.54710
H          4.23600       -4.11170        1.30190
H          6.17310       -5.51040        1.05890
H          9.36380       -6.71450       -0.54180
H          7.63150       -7.21230       -0.51280
H          8.33490       -6.23910        0.85550
H          7.17630       -3.39940       -2.55480
H          5.03720       -2.21660       -2.40910
