101

C          1.02400       -0.65300       -0.05500
N          0.23160       -0.18600       -1.00590
C          0.34960       -0.24370       -2.47260
C         -0.83240       -1.03060       -3.07540
C          0.25780        1.19440       -3.10140
C         -0.83620        0.62260       -0.46120
C         -0.83170        0.28230        0.98190
N          0.53100       -0.13100        1.22950
C          1.02040       -0.22210        2.61110
C          1.57570        1.15470        3.07090
C         -0.13170       -0.52980        3.62310
Pt         2.78020       -1.86970       -0.29550
Br         1.36650       -3.67100       -1.50580
C          3.95370       -0.37440        0.70920
C          3.41430        0.77150        0.16820
C          4.53640       -3.08650       -0.53600
N          5.96910       -2.78600       -0.61840
C          7.11520       -1.75170       -0.61350
C          7.13340       -0.60930        0.28510
C          6.29590        0.56910       -0.30660
C          5.41510        0.07360       -1.58320
C          5.91130        1.68960        0.81090
C          8.35930        0.03640        0.60140
C          9.41870       -0.01510       -0.27490
C          9.27040       -0.75090       -1.43130
C          8.17140       -1.60230       -1.66970
C          8.19690       -2.06780       -3.18680
C          9.44040       -2.87870       -3.59780
C          6.92960       -2.63010       -3.86530
C          6.53280       -4.03830       -0.74450
C          5.61410       -5.00680       -0.72520
N          4.36010       -4.54060       -0.67610
C          3.31430       -5.69650       -0.72360
C          2.03660       -5.68780        0.08190
C          1.54060       -4.65330        1.22800
C          0.10680       -4.95350        1.80820
C          2.48470       -4.43340        2.38610
C          0.97330       -6.51410       -0.42080
C          1.07970       -7.38930       -1.44060
C          2.29140       -7.64770       -1.98620
C          3.42020       -6.87280       -1.68230
C          4.64130       -7.34700       -2.57460
C          4.63230       -8.63480       -3.52960
C          4.90060       -6.19230       -3.51160
H          1.31050       -0.72030       -2.73730
H         -1.75450       -0.40950       -3.15800
H         -1.09280       -1.89700       -2.44330
H         -0.58140       -1.35790       -4.10890
H         -0.74960        1.65060       -2.91350
H          0.34720        1.17110       -4.21020
H          0.99630        1.90930       -2.68900
H         -1.83890        0.43140       -0.90030
H         -0.55890        1.69520       -0.58190
H         -1.46710       -0.62350        1.12500
H         -1.20930        1.12860        1.59380
H          1.81040       -0.99230        2.69700
H          0.79240        1.95110        2.99610
H          2.44110        1.48110        2.47270
H          1.89350        1.11700        4.13230
H         -0.89810        0.28930        3.64230
H          0.25020       -0.57900        4.66220
H         -0.65690       -1.47260        3.38460
H          4.67590       -0.53930        1.50020
H          2.79990        0.63190       -0.71480
H          3.54560        1.82630        0.31000
H          6.97060        1.18540       -0.92950
H          5.07230       -0.83920       -1.17570
H          6.01800       -0.42210       -2.34780
H          4.39040       -0.30430       -1.81010
H          6.71210        2.02770        1.48970
H          5.18310        1.49260        1.63580
H          5.53620        2.61060        0.32050
H          8.43800        0.86620        1.29100
H         10.27100        0.64770       -0.13800
H         10.06620       -0.58600       -2.16730
H          8.31290       -1.10800       -3.75970
H          9.47140       -3.83710       -3.05360
H         10.38280       -2.31670       -3.42630
H          9.42840       -3.05790       -4.70080
H          6.65360       -3.58350       -3.38880
H          7.13280       -2.78360       -4.94010
H          6.09810       -1.90950       -3.83570
H          7.59370       -4.25060       -0.77340
H          5.89010       -6.03440       -0.72610
H          1.42020       -3.59570        0.91470
H          0.04820       -6.00000        2.17480
H         -0.68860       -4.78290        1.04070
H         -0.18710       -4.27440        2.63670
H          2.68620       -5.36800        2.91790
H          2.01240       -3.69980        3.09390
H          3.39990       -3.93750        2.00900
H         -0.06060       -6.41650       -0.09890
H          0.20910       -7.91060       -1.82000
H          2.29990       -8.42710       -2.73580
H          5.47390       -7.60880       -1.89230
H          3.90910       -8.56130       -4.37500
H          4.46790       -9.63580       -3.06140
H          5.62300       -8.74280       -4.04380
H          4.14970       -6.25410       -4.32720
H          5.93810       -6.23710       -3.88370
H          4.71590       -5.22280       -3.03770
