42

C         -0.14990       -1.25810       -0.02480
N         -1.06530       -0.21330       -0.10900
C         -2.52970       -0.24620       -0.11410
C         -0.34210        0.95070       -0.06150
C         -0.84370        2.38760       -0.04370
C          0.98470        0.63130       -0.01050
C          2.13450        1.61490       -0.00780
N          1.10690       -0.71630        0.01280
C          2.38390       -1.42100       -0.11730
Pt        -0.49020       -3.48260       -0.01010
Br        -1.57420       -3.30450       -2.35550
C          0.40970       -3.63050        1.93700
C          0.95900       -2.60880        2.60130
N         -0.88370       -5.54330       -0.03710
C         -1.82890       -6.08030       -0.88210
C         -2.15280       -7.43950       -0.87210
C         -1.49150       -8.30090       -0.00450
C         -1.87080       -9.74970        0.08280
C         -0.47990       -7.78630        0.80000
C         -0.19950       -6.41730        0.77440
H         -2.91740       -1.28030       -0.07320
H         -2.93490        0.28550       -1.00210
H         -2.90270        0.29660        0.78810
H         -1.94490        2.49970       -0.05450
H         -0.42810        2.94870       -0.91100
H         -0.46470        2.90270        0.87220
H          1.80070        2.67440       -0.01090
H          2.75450        1.46580       -0.91570
H          2.75380        1.45930        0.89890
H          3.23120       -0.70700       -0.20330
H          2.37290       -1.99530       -1.06820
H          2.59910       -2.08730        0.72630
H          0.34380       -4.51710        2.54140
H          0.99980       -1.60720        2.22150
H          1.33130       -2.74870        3.60970
H         -2.42130       -5.49580       -1.55030
H         -2.93420       -7.80760       -1.52460
H         -2.73470       -9.98300       -0.57660
H         -2.17660       -9.97080        1.12810
H         -1.01780      -10.40120       -0.19450
H          0.08180       -8.43950        1.45650
H          0.61540       -6.11210        1.38900
