32

N         -1.39000       -0.11200       -0.05400
C         -0.66180        0.55220       -0.98920
C          0.73170        0.56060       -0.92300
C          1.38010       -0.21340        0.04020
C          2.87850       -0.28300        0.07540
C          0.61040       -0.93980        0.95770
C         -0.78340       -0.84440        0.92360
Pt        -3.47560       -0.20170       -0.28210
Br        -3.19270       -1.93190       -2.18850
C         -3.71050        1.23450        1.30050
C         -2.67000        1.72160        1.98490
O         -5.51160       -0.28930       -0.50470
C         -6.25110       -0.25700        0.69770
C         -7.74570       -0.37660        0.39610
C         -5.81480       -1.47620        1.52530
H         -1.17010        1.12840       -1.75080
H          1.29360        1.15520       -1.64130
H          3.33580        0.39930       -0.67480
H          3.20150       -1.31800       -0.15380
H          3.24600        0.00450        1.08160
H          1.08920       -1.58080        1.68810
H         -1.38730       -1.43610        1.60140
H         -4.62090        1.69700        1.60870
H         -1.65240        1.41800        1.81290
H         -2.83210        2.46740        2.75780
H         -6.20700        0.66460        1.26230
H         -7.96770       -1.28300       -0.20420
H         -8.09250        0.52350       -0.15200
H         -8.31670       -0.43490        1.35150
H         -5.98980       -2.41290        0.94070
H         -6.38050       -1.55030        2.47540
H         -4.72990       -1.42740        1.75600
