32

N         -0.65900       -1.22800       -0.05100
C         -1.36480       -0.04970       -0.07530
C         -2.81790       -0.01870       -0.48140
C         -0.69870        1.18020        0.03400
C          0.68700        1.20380        0.14030
C          1.39850        0.00840        0.07500
C          0.70460       -1.19490       -0.06030
Pt        -1.57560       -3.10440       -0.27260
Br         0.07960       -3.68800       -2.17720
C         -2.94970       -2.61980        1.30850
C         -3.07230       -1.51020        2.05070
N         -2.49230       -4.98070       -0.49410
C         -1.78940       -6.07090       -0.97970
F         -0.46370       -6.04950       -1.19950
C         -2.37600       -7.33340       -1.11120
C         -3.70630       -7.51670       -0.79150
F         -4.28620       -8.73390       -0.93220
C         -4.43930       -6.43750       -0.33790
C         -3.82810       -5.18910       -0.18480
F         -4.68380       -4.18100        0.09060
H         -3.20630       -1.03480       -0.69080
H         -2.89720        0.53100       -1.44720
H         -3.45440        0.50740        0.25590
H         -1.24540        2.11440       -0.01590
H          1.21220        2.14580        0.22210
H          2.47840        0.01460        0.12680
H          1.26370       -2.11990       -0.09720
H         -3.59100       -3.38870        1.69100
H         -2.46430       -0.63360        1.96790
H         -3.80690       -1.48320        2.85040
H         -1.78340       -8.17510       -1.44890
H         -5.49480       -6.55740       -0.12760
