27

N         -1.39000       -0.11200       -0.05400
C         -0.85210        0.88430        0.70100
C          0.53660        1.01430        0.80300
C          1.35740        0.04430        0.22460
F          2.70460        0.12470        0.35500
C          0.78570       -1.01160       -0.48550
C         -0.60090       -1.04550       -0.65730
Pt        -3.47560       -0.20170       -0.28210
Br        -3.71400       -0.94120        2.18870
C         -3.27780        0.41210       -2.33310
C         -2.10140        0.66790       -2.91590
O         -5.51160       -0.28930       -0.50470
C         -6.36360       -0.60470        0.46550
C         -7.65850       -0.58320       -0.00100
C         -7.58500       -0.20940       -1.30850
C         -6.24810       -0.04620       -1.58690
H         -1.49750        1.64060        1.12740
H          0.97120        1.85730        1.32430
H          1.40750       -1.79310       -0.90250
H         -1.05880       -1.86290       -1.19940
H         -4.08480        0.56480       -3.00730
H         -1.15700        0.60150       -2.40930
H         -2.06840        0.97690       -3.95600
H         -6.13950       -0.87850        1.47320
H         -8.55450       -0.81710        0.55890
H         -8.41160       -0.07990       -1.99540
H         -5.95670        0.25820       -2.56590
