37

N         -0.65900       -1.22800       -0.05100
C         -1.39070       -0.08370        0.15170
F         -2.73230       -0.14500        0.34430
C         -0.76660        1.15830        0.28530
C          0.61670        1.24370        0.18340
C          1.36130        0.08330        0.00420
C          0.70740       -1.14890       -0.07100
Pt        -1.57560       -3.10440       -0.27260
Br         0.29070       -4.00290        1.15500
C         -3.07210       -2.15480       -1.52900
C         -2.96320       -0.96110       -2.14070
N         -2.49230       -4.98070       -0.49410
C         -1.79970       -6.11050       -0.15130
C         -2.28950       -7.39800       -0.39890
C         -3.54460       -7.59640       -1.01950
N         -4.04450       -8.91690       -1.37760
C         -3.31550      -10.15110       -1.10230
C         -5.29200       -9.13420       -2.10850
C         -4.27220       -6.42480       -1.29010
C         -3.74390       -5.16310       -1.02310
H         -1.35570        2.04710        0.47150
H          1.11000        2.20370        0.25660
H          2.43850        0.13570       -0.08760
H          1.30850       -2.02450       -0.25300
H         -3.95650       -2.62280       -1.88080
H         -2.10480       -0.31310       -2.08670
H         -3.74720       -0.62100       -2.81260
H         -0.81940       -6.07130        0.26860
H         -1.63320       -8.19890       -0.12110
H         -2.36670      -10.03350       -0.56420
H         -3.07520      -10.66060       -2.06140
H         -3.94600      -10.82840       -0.48940
H         -5.86020       -8.23290       -2.36660
H         -5.96720       -9.78290       -1.51380
H         -5.07030       -9.63920       -3.07400
H         -5.25210       -6.41990       -1.73120
H         -4.40380       -4.38010       -1.26080
