35

N         -1.39580        0.00350       -0.10090
C         -0.82230        1.14020        0.42170
C          0.56640        1.28810        0.53240
F          1.09720        2.39330        1.11310
C          1.40190        0.29340        0.04700
C          0.84030       -0.83630       -0.52560
C         -0.54920       -0.96840       -0.57600
Pt        -3.47560       -0.20170       -0.28210
Br        -3.58180        2.38570       -0.32930
C         -3.38750       -2.34960       -0.24290
C         -2.38970       -3.08450        0.27200
N         -5.77690       -0.24760       -0.45360
C         -6.60340       -1.43270       -0.44570
C         -6.23840       -2.87000       -0.30890
C         -8.02060       -1.42240       -0.51060
C         -8.73470       -0.29520       -0.57660
C         -8.05820        0.85680       -0.60080
C         -6.63800        0.91780       -0.55690
C         -6.31850        2.38310       -0.67840
H         -1.40480        1.93170        0.84960
H          2.47780        0.40190        0.10140
H          1.47680       -1.60400       -0.94610
H         -0.92110       -1.82360       -1.10430
H         -4.06590       -3.02010       -0.56190
H         -1.54940       -2.66560        0.80020
H         -2.44510       -4.17270        0.25320
H         -5.68430       -3.00180        0.64420
H         -5.86480       -3.20680       -1.30350
H         -7.05420       -3.60980       -0.16250
H         -8.63190       -2.31940       -0.50200
H         -9.81720       -0.31680       -0.61070
H         -8.70190        1.72970       -0.65900
H         -7.16200        3.08820       -0.85410
H         -5.73980        2.54450       -1.61230
H         -5.95560        2.76190        0.29800
