26

N         -1.40770       -0.02130       -0.02980
C         -0.75630        1.17790       -0.20250
C          0.64820        1.25400       -0.18050
Cl         1.47080        2.76140       -0.54210
C          1.39700        0.11340        0.09110
C          0.73750       -1.06630        0.39210
C         -0.65650       -1.10700        0.33020
Pt        -3.47560       -0.20170       -0.28210
Br        -3.66640        2.26230        0.49260
C         -3.31730       -2.24720       -0.92520
C         -2.26790       -3.01600       -1.27490
N         -5.51910       -0.28250       -0.54010
C         -6.35060       -1.34380       -0.69290
O         -7.60010       -0.97170       -0.83820
C         -7.62810        0.33400       -0.80100
C         -6.34420        0.78320       -0.60030
H         -1.28030        2.07380       -0.47380
H          2.48080        0.14160        0.08930
H          1.29920       -1.95160        0.66480
H         -1.13390       -2.01800        0.64290
H         -4.20950       -2.81990       -0.99130
H         -1.23370       -2.73010       -1.31290
H         -2.43510       -4.06000       -1.52520
H         -6.09920       -2.37980       -0.63360
H         -8.51970        0.93290       -0.92390
H         -6.05920        1.82100       -0.56630
