34

P          1.01520        0.09830       -0.01020
O         -0.35740        0.34380       -0.99820
C         -0.04200        1.44330       -1.85190
O          0.65850       -1.50830        0.44910
C          0.73690       -2.36570       -0.66220
O          0.70830        1.46190        0.98710
C         -0.64950        1.43260        1.40500
Pt         3.47520        0.09830       -0.01020
Br         3.47520       -0.47160        2.51630
C          3.47520        0.57140       -2.10750
C          3.04130       -0.28510       -3.02840
N          5.57520        0.09830       -0.01020
C          6.24230       -0.63960        0.93420
C          7.62500       -0.70930        0.93420
C          8.35840        0.04800        0.05270
F          9.71130        0.03680        0.09730
C          7.69230        0.84040       -0.87450
C          6.29370        0.80670       -0.93500
H         -0.53190        1.32040       -2.83520
H          1.03910        1.56350       -2.09820
H         -0.37870        2.40230       -1.40050
H          0.03970       -3.21200       -0.48310
H          1.76370       -2.77270       -0.75230
H          0.39990       -1.91150       -1.61960
H         -0.79830        2.14360        2.23820
H         -0.97030        0.42760        1.76200
H         -1.33780        1.78490        0.60260
H          3.78350        1.56150       -2.42430
H          2.68100       -1.26610       -2.74780
H          3.02560        0.01490       -4.07270
H          5.70980       -1.26420        1.62460
H          8.12420       -1.36340        1.66650
H          8.24970        1.47810       -1.55160
H          5.81150        1.44560       -1.64930
