50

N         -1.51040        0.40860        0.10940
C         -0.50070       -0.49090        0.36680
C          0.79550       -0.06890        0.70760
F          1.75010       -0.98160        1.01650
C          1.09180        1.28440        0.75960
C          0.09180        2.20090        0.48230
C         -1.19810        1.74430        0.17660
Pt        -3.47560       -0.20170       -0.28210
Br        -4.29850        2.12940        0.49030
C         -2.79260       -2.13690       -0.92330
C         -3.47240       -3.23840       -1.23380
P         -5.79940       -0.76920       -0.74310
N         -6.96850       -2.01360       -1.19260
C         -6.91370       -3.14110       -0.23550
C         -8.27120       -1.71370       -1.75680
O         -6.28440        0.60980       -1.67720
C         -6.54470        1.90650       -1.25320
C         -5.84260        2.98960       -1.85740
C         -5.94210        4.30650       -1.35010
C         -6.77940        4.58760       -0.27830
C         -7.54780        3.57190        0.26850
C         -7.44160        2.23570       -0.20250
C         -8.29650        1.24470        0.43910
C         -9.65740        1.58730        0.59770
C        -10.55080        0.70060        1.17570
C        -10.08670       -0.51690        1.65890
C         -8.72850       -0.85110        1.55140
C         -7.81320        0.00130        0.89860
O         -6.50080       -0.37320        0.75730
H         -0.65830       -1.54170        0.42460
H          2.08640        1.62260        1.02290
H          0.30940        3.26280        0.50860
H         -1.89740        2.52000       -0.05100
H         -1.73860       -2.25630       -1.09050
H         -4.53370       -3.31830       -1.20260
H         -2.91200       -4.10960       -1.57330
H         -5.98620       -3.12970        0.39000
H         -6.92170       -4.10450       -0.77890
H         -7.75060       -3.13160        0.47380
H         -8.20200       -0.87230       -2.47120
H         -9.02610       -1.52380       -0.97440
H         -8.59370       -2.61240       -2.32630
H         -5.14390        2.80830       -2.65830
H         -5.34360        5.11030       -1.76130
H         -6.83790        5.59270        0.13820
H         -8.19920        3.82510        1.10120
H        -10.04040        2.53860        0.23780
H        -11.59950        0.96590        1.25120
H        -10.78660       -1.20240        2.11650
H         -8.40880       -1.79150        1.96070
