34

P          1.00160       -0.02920        0.09560
O         -0.37720       -0.12680        1.10540
C         -0.04360       -1.09240        2.09620
O          0.67180        1.49830       -0.60030
C          0.75060        2.50660        0.36880
O          0.67800       -1.52530       -0.69010
C         -0.68070       -1.54380       -1.11780
Pt         3.46160       -0.02920        0.09560
Br         3.46160        0.10100       -2.49110
C          3.46160       -0.13730        2.24290
C          2.97940        0.83250        3.01490
N          5.56160       -0.02920        0.09560
C          6.21570        0.97600       -0.54910
F          5.51180        2.01460       -1.05860
C          7.61240        1.05640       -0.50300
C          8.32750        0.00060        0.09440
F          9.68430        0.02420        0.07620
C          7.63980       -1.05630        0.68100
C          6.24780       -1.02170        0.73690
F          5.57450       -2.07420        1.25520
H         -0.54410       -0.79550        3.06580
H          1.03810       -1.14850        2.39220
H         -0.40230       -2.09250        1.82310
H          0.06770        3.32940        0.05300
H          1.78090        2.90990        0.40760
H          0.38980        2.21060        1.38000
H         -0.83390       -2.36110       -1.84950
H         -1.00120       -0.58840       -1.61130
H         -1.36810       -1.78870       -0.27280
H          3.86150       -1.02950        2.71080
H          2.55830        1.72970        2.58350
H          2.99700        0.71300        4.09530
H          8.12730        1.90270       -0.90230
H          8.18940       -1.89330        1.08690
