43

N         -1.38900       -0.14860       -0.06650
C         -0.55030        0.91470       -0.37570
C          0.76460        0.99190       -0.44030
C          1.42170       -0.05120       -0.06710
C          2.87760       -0.02040       -0.26340
C          0.72890       -1.13590        0.44490
C         -0.67800       -1.20940        0.32490
Pt        -3.47020       -0.13930       -0.30100
Br        -3.24800       -2.75170       -0.74810
C         -3.61180        1.92040        0.05210
C         -2.73820        2.80590        0.31160
P         -5.88370       -0.27220       -0.55000
C         -6.63690        1.34690       -0.70590
C         -6.29980       -1.28430       -2.03130
C         -6.63430       -1.11110        0.90650
C         -6.33580       -0.33450        2.16950
C         -8.13210       -1.20440        0.71460
C         -6.07310       -2.51920        1.05520
H         -0.75190        1.68370       -0.71600
H          1.22190        1.91450       -0.84940
H          3.23440        0.92310       -0.72340
H          3.15560       -0.84120       -0.94980
H          3.36930       -0.16210        0.69220
H          1.26720       -1.89730        0.87910
H         -1.12620       -2.09230        0.58240
H         -4.49310        2.40050        0.09720
H         -2.00050        2.47660        0.62680
H         -2.60970        3.80620        0.42350
H         -6.15700        1.86470       -1.57970
H         -6.40390        1.95060        0.18160
H         -7.69690        1.33710       -0.83730
H         -5.88410       -0.79030       -2.92560
H         -7.40610       -1.31880       -2.16790
H         -5.92240       -2.29450       -1.95350
H         -6.74500        0.67570        2.08340
H         -5.25090       -0.27710        2.33020
H         -6.79170       -0.82720        3.04420
H         -8.55560       -0.19860        0.61340
H         -8.60320       -1.70450        1.57780
H         -8.36480       -1.78570       -0.18840
H         -4.98560       -2.48680        1.20690
H         -6.28490       -3.11610        0.15600
H         -6.52570       -3.03420        1.92140
