55

N         -1.44280       -0.20710       -0.15060
C         -0.84550       -0.45000        1.04940
C          0.54750       -0.35930        1.18750
C          1.33730       -0.01130        0.08300
C          2.83480        0.10880        0.20320
C          0.70720        0.24310       -1.14100
C         -0.69190        0.14940       -1.23620
Pt        -3.47560       -0.20170       -0.28210
Br        -3.44240        2.32840        0.27070
C         -3.50330       -2.30200       -0.74090
C         -2.42880       -3.09190       -0.76950
P         -5.87610       -0.17100       -0.52870
C         -6.88110        1.29100       -0.72130
C         -7.18230        1.78980       -2.00200
C         -7.77280        3.04710       -2.13970
C         -8.05590        3.81230       -1.00480
C         -7.73350        3.32840        0.26540
C         -7.13190        2.08040        0.40410
C         -6.15270       -1.11810       -2.06060
C         -7.28960       -1.94260       -2.20230
C         -7.50440       -2.67070       -3.37860
C         -6.59080       -2.58820       -4.42880
C         -5.46130       -1.77360       -4.30460
C         -5.24370       -1.03840       -3.12840
C         -6.70120       -0.99910        0.93440
C         -5.97810       -1.61640        1.98230
C         -6.66450       -2.22860        3.05350
C         -8.05650       -2.22560        3.09600
C         -8.75660       -1.62010        2.05590
O         -9.97600       -1.60950        2.07780
N         -8.07470       -1.03280        1.00790
H         -1.45420       -0.68600        1.90750
H          1.00300       -0.54060        2.15340
H          3.18780       -0.11440        1.23360
H          3.15280        1.14240       -0.05100
H          3.33430       -0.59790       -0.49350
H          1.29630        0.52680       -2.00580
H         -1.17140        0.37480       -2.18090
H         -4.45070       -2.76240       -0.99070
H         -1.43080       -2.72460       -0.57910
H         -2.55130       -4.13990       -1.03210
H         -6.91690        1.24480       -2.89910
H         -7.98320        3.43980       -3.12660
H         -8.50020        4.79060       -1.11020
H         -7.91950        3.92860        1.14420
H         -6.83350        1.73750        1.38750
H         -8.02000       -2.03650       -1.41600
H         -8.38150       -3.30090       -3.47790
H         -6.76150       -3.15410       -5.33780
H         -4.75760       -1.71280       -5.12450
H         -4.36540       -0.41580       -3.04980
H         -4.89930       -1.64610        1.98600
H         -6.12640       -2.71060        3.86360
H         -8.58690       -2.68970        3.92790
H         -8.64370       -0.59120        0.25320
