39

N         -1.47560        0.03710       -0.05630
C         -0.73950       -0.91610        0.58620
C          0.62980       -0.72630        0.80630
C          1.21420        0.48880        0.44710
C          0.44090        1.46900       -0.17300
C         -0.90240        1.20680       -0.45830
Pt        -3.47560       -0.20170       -0.28210
Br        -3.71870       -0.62830        2.26100
C         -3.27390        0.15230       -2.39310
C         -4.26230        0.05560       -3.28680
N         -5.47250       -0.26580       -0.55940
C         -6.27650        0.72970       -0.79560
C         -5.93860        2.21000       -0.75170
C         -4.64150        2.70290       -0.49800
C         -4.40770        4.08560       -0.35950
C         -5.45980        4.99830       -0.45910
C         -6.74680        4.53770       -0.70500
C         -6.98530        3.16910       -0.85010
N         -7.61960        0.29580       -0.86800
C         -7.61990       -1.12670       -0.90120
C         -6.24160       -1.47070       -0.32820
H         -1.20110       -1.85340        0.87460
H          1.22860       -1.50170        1.26670
H          2.26030        0.67330        0.65740
H          0.87420        2.43160       -0.41550
H         -1.51060        1.98020       -0.90110
H         -2.30030        0.46650       -2.75330
H         -5.26970       -0.22070       -3.01720
H         -4.06940        0.28930       -4.32860
H         -3.81010        2.03430       -0.37880
H         -3.41150        4.45800       -0.15640
H         -5.28630        6.06220       -0.33580
H         -7.57010        5.24150       -0.76970
H         -8.01230        2.89520       -1.01220
H         -8.44660        0.86310       -1.08960
H         -7.68790       -1.39020       -1.98300
H         -8.44890       -1.60050       -0.33910
H         -5.82940       -2.33450       -0.89900
H         -6.26310       -1.68250        0.75650
