37

N         -1.39000       -0.11200       -0.05400
C         -0.80580        1.10200        0.08790
C          0.58850        1.22540        0.02080
C          1.41320        0.06250       -0.08740
N          2.87470        0.16720       -0.15100
C          3.57470        1.41380       -0.40850
C          3.74670       -0.99190       -0.00510
C          0.74680       -1.17350       -0.15470
C         -0.64520       -1.23280       -0.20220
Pt        -3.47560       -0.20170       -0.28210
Br        -3.17450       -0.92970       -2.74940
C         -3.72560        0.40260        1.76610
C         -4.71170        0.81790        2.58090
O         -5.51160       -0.28930       -0.50470
C         -6.25970       -0.97330        0.48740
C         -7.74290       -0.85600        0.13480
C         -5.83290       -2.43720        0.55280
H         -1.42020        1.99070        0.11370
H          0.97530        2.22790        0.03940
H          2.93540        2.28970       -0.58040
H          4.18940        1.30620       -1.33890
H          4.25890        1.64370        0.43450
H          3.24140       -1.93340        0.22660
H          4.45690       -0.81560        0.82700
H          4.33250       -1.13700       -0.94070
H          1.25550       -2.12140       -0.21720
H         -1.14200       -2.19080       -0.29040
H         -2.75150        0.48650        2.23800
H         -5.73020        1.03240        2.30330
H         -4.46410        1.10950        3.59640
H         -6.18470       -0.63930        1.48460
H         -7.94950       -1.31490       -0.85500
H         -8.03530        0.21590        0.09930
H         -8.36780       -1.35930        0.90460
H         -5.97390       -2.94060       -0.42490
H         -6.43310       -2.96980        1.32490
H         -4.76400       -2.49990        0.84910
