32

N          1.14300       -0.69700        0.08900
C         -0.01820       -1.40810        0.01210
C          0.00450       -2.89550        0.17190
C         -1.23910       -0.73500       -0.12930
C         -1.24740        0.65810       -0.21000
C         -0.04630        1.36480       -0.15100
C          1.15670        0.66350        0.00870
C          2.47150        1.38050        0.03040
Pt         2.95390       -1.70510        0.42730
Br         3.18500       -2.14290       -2.11500
C          2.76200       -1.34170        2.53760
C          1.74210       -0.66780        3.07700
N          4.76480       -2.71320        0.76550
C          5.53170       -2.79610        1.88160
O          6.61590       -3.50990        1.68000
C          6.60060       -3.90650        0.43380
C          5.45230       -3.42920       -0.15020
H          1.04340       -3.26440        0.30140
H         -0.44900       -3.38330       -0.71430
H         -0.57500       -3.17450        1.07940
H         -2.17410       -1.28230       -0.15590
H         -2.18340        1.18990       -0.31610
H         -0.05470        2.44470       -0.22900
H          2.34250        2.47740       -0.08740
H          3.08890        1.01670       -0.82030
H          3.00860        1.17680        0.97710
H          3.46740       -1.71520        3.25060
H          0.93930       -0.25050        2.49190
H          1.69600       -0.53070        4.15290
H          5.33280       -2.36130        2.83850
H          7.37510       -4.49560       -0.03880
H          5.18540       -3.58780       -1.17940
