58

N          1.14300       -0.69700        0.08900
C          0.17390       -1.30650       -0.67930
C          0.46500       -2.52450       -1.49840
C         -1.09980       -0.73640       -0.83020
C         -1.39830        0.46420       -0.21200
C         -0.42250        1.10290        0.53400
C          0.84850        0.51810        0.68880
C          1.78500        1.22470        1.62340
Pt         2.95390       -1.70510        0.42730
Br         1.65560       -3.68440        1.47840
C          4.03160       -0.06200       -0.44530
C          3.43010        0.95020       -1.07780
P          5.07520       -2.88600        0.82350
C          5.41300       -4.00020        2.24880
C          5.08220       -5.37050        2.36780
C          5.18420       -6.02640        3.60490
C          5.61450       -5.34170        4.74110
C          5.94130       -3.99570        4.65000
C          5.82630       -3.33630        3.42920
C          4.99310       -4.15790       -0.49990
C          6.01740       -4.09950       -1.46580
C          6.12460       -5.04740       -2.48040
C          5.19350       -6.07520       -2.56640
C          4.14090       -6.13410       -1.64980
C          4.03000       -5.17720       -0.63030
C          6.49890       -1.75540        0.97090
C          6.34700       -0.44620        1.47390
C          7.44080        0.41780        1.52360
C          8.69360       -0.02240        1.11240
C          8.85090       -1.34110        0.68110
O          9.94970       -1.75310        0.35370
N          7.75090       -2.17270        0.63750
H          1.53210       -2.81440       -1.44180
H          0.25450       -2.26540       -2.56440
H         -0.19710       -3.36630       -1.21530
H         -1.85580       -1.21370       -1.44310
H         -2.38440        0.90180       -0.31560
H         -0.67480        2.03440        1.02780
H          1.22900        1.51110        2.54640
H          2.13940        2.16670        1.15410
H          2.63520        0.58550        1.92620
H          5.10120       -0.05240       -0.52150
H          2.36260        1.00920       -1.20030
H          4.01710        1.71480       -1.57270
H          4.70010       -5.95780        1.56520
H          4.89830       -7.06600        3.69180
H          5.67430       -5.84520        5.69800
H          6.25560       -3.45120        5.53220
H          6.03970       -2.27740        3.43630
H          6.76130       -3.31920       -1.45210
H          6.93760       -4.98580       -3.19390
H          5.28720       -6.82110       -3.34370
H          3.41690       -6.93380       -1.72210
H          3.21790       -5.27400        0.05940
H          5.38030       -0.08700        1.79990
H          7.32080        1.43160        1.88010
H          9.54960        0.64610        1.14490
H          7.90210       -3.16940        0.32600
