89

N         -1.39000       -0.11200       -0.05400
C         -0.62860       -1.03080        0.63570
C          0.74910       -0.85870        0.89590
O          1.39460       -1.81410        1.59900
C          2.72050       -1.78020        1.96140
C          1.36050        0.29300        0.40330
C          0.59760        1.26310       -0.22410
C         -0.77830        1.04520       -0.40440
Pt        -3.47560       -0.20170       -0.28210
Br        -3.84440        1.81140        1.16330
C         -2.82130       -2.04660       -0.54160
C         -1.83780       -2.15770       -1.51210
C         -5.61100       -0.29360       -0.51560
N         -6.38030        0.80150       -0.52290
C         -6.16360        2.32960       -0.54720
C         -5.14820        3.13320       -1.29750
C         -3.82170        2.67910       -1.97310
C         -3.93740        2.48120       -3.46610
C         -2.64380        3.72070       -1.71170
C         -5.29480        4.55490       -1.39610
C         -6.24100        5.27370       -0.75740
C         -7.10590        4.61200        0.06070
C         -7.10400        3.22230        0.19210
C         -8.09860        2.77440        1.18630
C         -9.46450        2.61190        0.49700
C         -7.40330        1.80800        2.17690
C         -7.71890        0.28370       -0.75140
C         -7.61100       -1.16270       -1.19610
N         -6.27200       -1.56630       -0.85980
C         -5.97420       -2.87870       -0.19650
C         -5.03410       -3.88500       -0.75780
C         -4.28230       -3.89200       -2.13240
C         -3.67920       -5.19700       -2.74060
C         -4.57440       -2.75180       -3.11790
C         -4.64710       -4.97820        0.05620
C         -5.19760       -5.23740        1.27770
C         -6.21930       -4.46020        1.73000
C         -6.64690       -3.29810        1.05010
C         -7.88410       -2.63520        1.67500
C         -9.12600       -3.43790        1.20510
C         -7.93050       -2.59940        3.22480
H         -1.04970       -1.92900        1.08770
H          2.94930       -2.69870        2.54990
H          2.95580       -0.89440        2.59700
H          3.36300       -1.78160        1.05590
H          2.41760        0.48140        0.56230
H          1.05840        2.18110       -0.57870
H         -1.35440        1.78660       -0.86870
H         -3.07090       -2.84710        0.11980
H         -1.57210       -1.30180       -2.13380
H         -1.27240       -3.06960       -1.69470
H         -3.52930        1.70880       -1.53820
H         -4.26190        3.42070       -3.96190
H         -4.66210        1.66580       -3.66970
H         -2.94440        2.18760       -3.87000
H         -2.73370        4.66150       -2.28190
H         -1.65550        3.38820       -2.08710
H         -2.56070        3.98840       -0.63490
H         -4.64490        5.20110       -1.96340
H         -6.28300        6.34230       -0.84190
H         -7.80870        5.24550        0.59620
H         -8.35570        3.59430        1.90050
H         -9.47570        2.04690       -0.43910
H         -9.79120        3.62420        0.15660
H        -10.22790        2.22330        1.19190
H         -8.10990        1.37380        2.89650
H         -6.80730        0.99180        1.74960
H         -6.63780        2.40790        2.73100
H         -8.22500        0.83120       -1.58890
H         -8.29140        0.32060        0.19320
H         -7.68280       -1.22770       -2.29690
H         -8.42480       -1.77300       -0.79500
H         -3.32200       -3.74060       -1.85580
H         -4.42740       -5.95180       -3.00220
H         -2.91530       -5.69860       -2.07190
H         -3.03560       -4.94100       -3.61980
H         -5.52850       -2.89530       -3.64660
H         -3.73670       -2.66420       -3.84810
H         -4.56870       -1.76940       -2.60130
H         -3.88200       -5.67740       -0.22720
H         -4.86030       -6.09150        1.85740
H         -6.66000       -4.80040        2.65250
H         -7.94470       -1.58970        1.34940
H         -9.09670       -4.48200        1.58920
H         -9.18180       -3.53130        0.10240
H        -10.06440       -2.96320        1.55810
H         -8.04120       -3.61010        3.67920
H         -8.83520       -2.04770        3.55870
H         -7.03150       -2.11170        3.64710
