46

N         -1.38550       -0.14240       -0.10750
C         -0.78250        1.07910       -0.01390
C          0.59770        1.22450        0.02040
C          1.43990        0.09890       -0.10970
N          2.88460        0.21320       -0.17970
C          3.58770        1.48950       -0.11440
C          3.75740       -0.93330       -0.41680
C          0.79380       -1.14920       -0.23170
C         -0.59320       -1.24790       -0.22600
Pt        -3.45450       -0.21780       -0.23840
Br        -3.35740        2.06270       -1.18280
C         -3.53880       -2.25000        0.56020
C         -3.55230       -3.44640       -0.09250
P         -5.72770       -0.09610       -0.38670
N         -7.19640       -1.04060       -0.43030
C         -7.50700       -2.02350        0.63090
C         -8.28330       -0.22630       -0.85300
O         -6.04880        0.88830        1.02060
C         -5.66380        0.22420        2.18810
O         -5.94780        1.14060       -1.63690
C         -5.42770        0.72540       -2.89560
H         -1.35410        1.97770        0.11550
H          0.94810        2.23580        0.13860
H          2.95500        2.37300        0.03640
H          4.12310        1.65530       -1.07140
H          4.32510        1.47130        0.71610
H          3.26770       -1.91230       -0.46120
H          4.50500       -1.01390        0.39550
H          4.27530       -0.79930       -1.39050
H          1.29380       -2.08460       -0.36240
H         -1.00800       -2.21080       -0.44080
H         -3.60180       -2.34600        1.65230
H         -3.41770       -3.52190       -1.14900
H         -3.62430       -4.38540        0.45840
H         -6.61630       -2.59310        0.99270
H         -8.21280       -2.76440        0.20020
H         -8.07320       -1.54920        1.45760
H         -7.99500        0.36460       -1.74160
H         -8.52900        0.48380       -0.05000
H         -9.13450       -0.84160       -1.16960
H         -5.92510        0.86590        3.05890
H         -4.56700        0.07700        2.22300
H         -6.23740       -0.70630        2.32370
H         -5.70130        1.45980       -3.67150
H         -5.76040       -0.26250       -3.20760
H         -4.34700        0.74890       -3.00040
