33

N         -1.44250       -0.12960       -0.05370
C         -0.72090        0.61550       -0.90610
C          0.69310        0.56610       -0.90500
O          1.45040        1.19790       -1.83710
C          0.95350        1.95000       -2.87990
C          1.33780       -0.19570        0.07160
C          0.58590       -0.89800        1.01020
C         -0.81520       -0.88010        0.92790
Pt        -3.47560       -0.20170       -0.28210
Br        -3.73770        1.81640        1.31990
C         -3.25810       -1.87710       -1.61190
C         -2.09990       -2.46140       -1.93110
N         -5.52640       -0.34990       -0.55960
C         -6.16450       -1.55950       -0.66270
F         -5.50530       -2.73720       -0.52620
C         -7.55340       -1.64640       -0.79570
C         -8.31480       -0.48800       -0.81550
F         -9.66180       -0.55370       -0.95340
C         -7.68420        0.74050       -0.68290
C         -6.29860        0.79810       -0.52370
F         -5.73870        2.02140       -0.48260
H         -1.25010        1.17740       -1.65920
H          1.78780        2.28730       -3.52860
H          0.42500        2.83750       -2.47560
H          0.25960        1.33800       -3.49690
H          2.42270       -0.25160        0.09310
H          1.09330       -1.47290        1.77740
H         -1.39100       -1.44850        1.64520
H         -4.11360       -2.25850       -2.14890
H         -1.14860       -2.14730       -1.53020
H         -2.10150       -3.27780       -2.65040
H         -8.03810       -2.61370       -0.86480
H         -8.26210        1.65440       -0.71260
