99

P          1.01490       -0.01000       -0.09840
C         -0.06890       -0.02850       -1.66820
C          0.19900        1.13910       -2.62920
C         -0.52050        0.68070       -3.88980
C         -0.07290       -0.75500       -4.03650
C          0.21090       -1.20940       -2.59770
C          0.52380       -1.67140        0.67480
C         -0.98640       -1.88570        0.89960
C         -1.06630       -3.37750        1.24240
C         -0.22890       -3.96470        0.13910
C          0.95890       -3.01560        0.04010
C          0.10830        1.37760        0.82580
C          0.42980        1.57560        2.32880
C          0.00210        3.02030        2.63580
C          0.24740        3.79020        1.34790
C         -0.02890        2.79650        0.22160
Pt         3.47490       -0.01000       -0.09840
Br         3.47490       -2.24070       -1.41440
C          3.47490        1.84180        0.99410
C          4.45610        2.19250        1.81560
C          5.62490       -0.01000       -0.09840
N          6.40550       -1.08760       -0.16280
C          6.09010       -2.50150        0.09750
C          6.79110       -3.64050       -0.46040
C          8.14370       -3.75320       -1.19750
C          6.24680       -4.94270       -0.32910
C          5.06980       -5.12890        0.39710
C          4.41620       -6.49760        0.41520
C          4.54950       -4.13920        1.13700
C          5.03630       -2.79680        1.01920
C          4.39740       -1.82060        1.94950
C          7.79590       -0.70040       -0.30820
C          7.70920        0.71140       -0.75870
N          6.53530        1.22930       -0.10220
C          6.62640        2.71560        0.15620
C          5.67590        3.78230       -0.22380
C          4.40180        3.69760       -1.03910
C          5.87000        5.11940        0.23860
C          6.93860        5.50120        1.02990
C          7.06310        6.91130        1.55790
C          7.87720        4.55780        1.35640
C          7.76590        3.20250        0.95810
C          8.88060        2.34570        1.55770
H         -1.16150       -0.01290       -1.41170
H          1.29150        1.21660       -2.84000
H         -0.19480        2.12250       -2.33030
H         -0.33530        1.28950       -4.80310
H         -1.61150        0.68360       -3.67950
H          0.89120       -0.76900       -4.60090
H         -0.80160       -1.37840       -4.59780
H          1.29750       -1.38480       -2.59600
H         -0.32510       -2.13970       -2.33570
H          0.94610       -1.67620        1.70620
H         -1.54890       -1.73200       -0.04530
H         -1.42830       -1.23910        1.68540
H         -2.09720       -3.79420        1.24750
H         -0.57650       -3.58280        2.21890
H         -0.83550       -3.85770       -0.79300
H          0.05250       -5.03710        0.21150
H          1.15410       -3.02500       -1.02990
H          1.82700       -3.39710        0.61740
H         -0.95300        1.03520        0.85970
H          1.50620        1.46310        2.52500
H         -0.08620        0.84980        2.99890
H          0.54210        3.47350        3.50180
H         -1.08620        3.04240        2.83900
H          1.31240        4.07840        1.29460
H         -0.33470        4.73750        1.26580
H          0.63180        3.04420       -0.62680
H         -1.09650        2.92070       -0.09060
H          2.62620        2.48170        0.93040
H          5.32210        1.56190        1.92230
H          4.44190        3.14520        2.33360
H          8.88300       -2.96620       -1.22020
H          8.01040       -4.14240       -2.21590
H          8.76210       -4.50710       -0.63020
H          6.71500       -5.77170       -0.80970
H          4.97030       -7.22950       -0.19620
H          3.39980       -6.36960       -0.04980
H          4.30150       -6.86070        1.43650
H          3.69290       -4.33090        1.76870
H          3.74440       -2.29650        2.72270
H          3.73540       -1.13800        1.46470
H          5.20230       -1.25930        2.50250
H          8.34510       -1.13600       -1.11150
H          8.31250       -0.79230        0.68760
H          7.46840        0.66920       -1.84530
H          8.64250        1.28250       -0.76560
H          4.24470        2.75440       -1.58320
H          4.28450        4.57460       -1.72760
H          3.55990        3.90930       -0.35050
H          5.14440        5.88770       -0.00030
H          6.19970        7.55050        1.26170
H          7.99470        7.39510        1.17720
H          7.10320        6.89850        2.66340
H          8.69930        4.89300        1.97800
H          9.51060        2.91600        2.28180
H          9.64490        1.99940        0.84030
H          8.44770        1.50980        2.13680
