83

P          1.01020       -0.09710        0.02150
C          0.04720        1.24440       -0.84450
C          0.33340        2.65200       -0.28820
C         -0.10250        3.55810       -1.43560
C          0.62830        2.91180       -2.59180
C          0.45370        1.41490       -2.33600
C          0.51490       -1.59980       -0.95450
C          0.72440       -1.65710       -2.46880
C          0.52770       -3.13560       -2.75930
C          1.34780       -3.78480       -1.66240
C          1.09950       -2.91790       -0.41470
C          0.37360        0.13230        1.74780
C         -1.14040       -0.10340        1.82620
C         -1.36710       -0.21370        3.32300
C         -0.26310       -1.17730        3.72480
C          0.93170       -0.83600        2.80890
Pt         3.47020       -0.09710        0.02150
Br         3.37700        1.87910        1.55330
C          3.91240       -1.65430       -1.36710
C          4.67720       -2.69820       -1.03230
C          5.62020       -0.09710        0.02150
N          6.37620       -0.60960        1.04150
C          5.96240       -1.31180        2.29380
C          4.42360       -1.43960        2.41940
C          6.57460       -2.73010        2.36330
C          6.46550       -0.51760        3.50850
C          7.64840       -0.40630        0.65160
C          7.64770        0.22630       -0.57930
N          6.37030        0.43060       -0.97860
C          5.95300        1.16820       -2.20360
C          6.46000        0.42260       -3.44740
C          4.42250        1.38140       -2.31270
C          6.55670        2.59110       -2.17400
H         -1.05110        1.08960       -0.79760
H          1.42840        2.80040       -0.16190
H         -0.16450        2.87930        0.67530
H          0.17390        4.62800       -1.30720
H         -1.20070        3.47430       -1.58540
H          1.70960        3.16080       -2.45570
H          0.34510        3.24420       -3.61200
H          1.41870        0.93890       -2.61080
H         -0.38020        1.04060       -2.96130
H         -0.59180       -1.69290       -0.86530
H          1.72950       -1.34740       -2.74600
H          0.02130       -1.05590       -3.06640
H          0.84380       -3.42740       -3.78530
H         -0.54330       -3.39070       -2.61600
H          2.39920       -3.65290       -1.97800
H          1.20240       -4.87470       -1.51720
H          2.05360       -2.81030        0.14050
H          0.35030       -3.36800        0.27150
H          0.56420        1.16270        2.12010
H         -1.39670       -1.08150        1.35670
H         -1.75580        0.69180        1.35740
H         -2.38430       -0.57090        3.60250
H         -1.19190        0.77950        3.78990
H         -0.62180       -2.19010        3.42920
H         -0.04310       -1.20730        4.81410
H          1.31280       -1.78910        2.38580
H          1.74460       -0.32260        3.36460
H          3.68510       -1.62330       -2.41510
H          5.04550       -2.81240       -0.04100
H          4.96720       -3.44790       -1.76050
H          3.95070       -1.98960        1.58900
H          3.95820       -0.45460        2.47690
H          4.14320       -1.96920        3.35570
H          6.24860       -3.40260        1.55270
H          6.28260       -3.23170        3.31340
H          7.68150       -2.69090        2.32920
H          6.04720        0.51030        3.50710
H          7.57360       -0.45510        3.50210
H          6.15800       -1.02280        4.45260
H          8.52980       -0.69600        1.20590
H          8.52570        0.53710       -1.13050
H          6.03150       -0.60220       -3.47250
H          7.56920        0.34290       -3.43030
H          6.16890        0.95440       -4.37890
H          3.86300        0.46830       -2.48300
H          4.17360        2.00470       -3.19750
H          4.01810        1.88610       -1.41170
H          7.66200        2.56070       -2.12700
H          6.17850        3.15610       -1.29270
H          6.27400        3.15800       -3.09170
