96

P          0.96300        0.02550       -0.08940
C         -0.10760        0.98880        1.11500
C          0.09580        0.59830        2.59310
C         -0.39320        1.83550        3.34830
C          0.31930        2.93400        2.59770
C          0.18540        2.51520        1.13400
C          0.37220        0.89240       -1.66680
C          0.71200        2.36140       -1.96980
C          0.14200        2.49880       -3.38060
C          0.61800        1.24630       -4.09330
C          0.83990        0.23870       -2.95980
C          0.19230       -1.66860        0.22320
C         -1.30980       -1.68730       -0.14260
C         -1.64210       -3.16550       -0.27640
C         -0.47650       -3.65950       -1.09870
C          0.73760       -2.87650       -0.57650
Pt         3.42300        0.02550       -0.08940
Br         3.42300       -1.52130       -2.16670
C          3.42300        1.30950        1.63510
C          3.62140        2.61510        1.45520
P          5.88300        0.02550       -0.08940
C          6.82550       -1.53420       -0.20420
C          7.04270       -2.31290       -1.35970
C          7.65800       -3.56880       -1.26170
C          8.01250       -4.11600       -0.01950
O          8.58360       -5.33380        0.14180
C          8.91030       -6.19500       -0.88890
C          7.73920       -3.37460        1.14240
C          7.15500       -2.12200        1.04170
C          6.12680        0.56120       -1.81360
C          5.10440        1.29950       -2.42350
C          5.28590        1.86670       -3.68790
C          6.49520        1.71800       -4.37370
O          6.61120        2.29440       -5.59920
C          7.78100        2.50450       -6.30080
C          7.54070        0.99990       -3.76180
C          7.36580        0.45440       -2.48480
C          6.75530        0.87590        1.35750
C          6.05610        1.02080        2.54560
C          6.42930        1.87070        3.56350
C          7.64970        2.53160        3.53200
O          7.99230        3.41890        4.51740
C          7.07710        4.00010        5.40070
C          8.51700        2.23260        2.45070
C          8.06620        1.42630        1.35770
H         -1.19060        0.87660        0.90790
H          1.16860        0.48300        2.81740
H         -0.39890       -0.34240        2.90140
H         -0.13960        1.84190        4.43210
H         -1.48940        1.94980        3.21910
H          1.38610        2.86030        2.89390
H          0.00570        3.98040        2.80750
H          1.11580        2.82880        0.62250
H         -0.69490        3.02670        0.68810
H         -0.73920        0.83320       -1.64730
H          1.81360        2.51420       -1.97600
H          0.22590        3.11770       -1.33540
H          0.37320        3.44180       -3.91740
H         -0.96820        2.42520       -3.29420
H          1.60450        1.44600       -4.57720
H         -0.09690        0.92450       -4.87920
H          1.92100        0.26740       -2.86460
H          0.48560       -0.79710       -3.15340
H          0.27830       -1.95690        1.29380
H         -1.45140       -1.23700       -1.14950
H         -1.97680       -1.17130        0.57630
H         -2.62110       -3.35800       -0.77510
H         -1.63090       -3.64820        0.72120
H         -0.66940       -3.31430       -2.14330
H         -0.34740       -4.76320       -1.14270
H          1.28330       -2.62170       -1.47980
H          1.36730       -3.49570        0.10040
H          3.21480        0.93020        2.62720
H          3.78580        3.00340        0.45660
H          3.60230        3.29710        2.29890
H          6.74690       -1.98100       -2.33910
H          7.81440       -4.13770       -2.16620
H          9.36850       -7.10330       -0.45590
H          9.64770       -5.70560       -1.56550
H          7.99970       -6.48940       -1.44840
H          7.95870       -3.78420        2.11680
H          6.93230       -1.61480        1.96470
H          4.17300        1.47450       -1.90240
H          4.48730        2.44960       -4.12820
H          7.53000        2.92230       -7.29790
H          8.33730        1.55670       -6.45270
H          8.41450        3.24220       -5.76280
H          8.49560        0.86990       -4.25340
H          8.20600       -0.05260       -2.02870
H          5.19140        0.46900        2.69590
H          5.72560        2.00780        4.37360
H          7.59370        4.66890        6.11770
H          6.53440        3.23670        5.99880
H          6.33180        4.60950        4.83950
H          9.51440        2.66060        2.44950
H          8.73430        1.27270        0.51710
