107

P          0.92600        0.04760        0.04740
C          0.00410        0.35210        1.80790
C          0.09760        1.68100        2.64160
C         -1.05480        2.67480        2.42700
C         -2.44020        2.04710        2.60170
C         -2.61720        0.66840        1.92910
C         -1.42390       -0.22120        2.23370
C          0.60670        1.16350       -1.49820
C         -0.88230        1.26650       -1.95640
C         -1.68040        2.22840       -1.07920
C         -1.09620        3.63390       -1.03560
C          0.41380        3.59340       -0.66510
C          1.17590        2.61650       -1.55720
C          0.06950       -1.68530       -0.12370
C          0.04070       -2.56860       -1.43190
C          0.99050       -3.80270       -1.47630
C          1.03470       -4.58360       -0.16100
C          1.28670       -3.63900        1.01030
C          0.13520       -2.66650        1.08450
Pt         3.38600        0.04760        0.04740
Br         3.23900        2.06020        1.48580
C          3.33190       -1.51560       -1.30010
C          4.24240       -2.49000       -1.41060
P          5.84600        0.04760        0.04740
N          6.75620       -0.89870        1.30430
C          6.36180       -0.47610        2.70110
C          4.85510       -0.61100        2.97060
C          7.03420       -1.30910        3.82300
C          8.22140       -0.89070        1.14120
C          8.64200       -0.00820        0.00310
C         10.18840        0.01390       -0.07160
C          8.06690       -0.62590       -1.30620
N          6.56300       -0.73670       -1.42060
C          6.22230       -0.00980       -2.72160
C          6.83300       -0.68190       -3.98040
C          4.73440        0.21300       -3.06370
N          6.65460        1.57550        0.55270
C          6.16640        2.91430        0.05550
C          6.93000        4.10250        0.62260
C          6.04020        3.10620       -1.46930
C          8.13420        1.45090        0.27720
H          0.70960       -0.27170        2.39380
H          1.04260        2.20300        2.59930
H          0.02840        1.40000        3.72140
H         -1.01900        3.11250        1.45970
H         -0.94120        3.53170        3.12750
H         -3.21620        2.75720        2.23730
H         -2.58160        1.90350        3.69000
H         -2.79560        0.63440        0.84890
H         -3.54620        0.22290        2.34190
H         -1.69270       -1.23120        1.90910
H         -1.41600       -0.30870        3.34940
H          1.12410        0.61080       -2.31050
H         -1.36320        0.26810       -1.97990
H         -0.93700        1.67750       -2.99130
H         -1.58260        1.84490       -0.09000
H         -2.75410        2.26460       -1.38110
H         -1.66760        4.25330       -0.30790
H         -1.23920        4.11950       -2.03010
H          0.63040        3.25330        0.34670
H          0.81240        4.62880       -0.73560
H          2.25530        2.63400       -1.31840
H          1.05460        3.00460       -2.59510
H         -0.96670       -1.28370       -0.14350
H          0.07220       -1.97390       -2.36910
H         -0.96320       -3.05740       -1.42910
H          2.00300       -3.52510       -1.70060
H          0.69790       -4.49440       -2.29730
H          1.83350       -5.35590       -0.19410
H          0.06630       -5.10780        0.00130
H          2.24460       -3.08210        0.92760
H          1.29260       -4.23450        1.94790
H          0.18480       -2.20940        2.07200
H         -0.81140       -3.26190        1.09030
H          2.51220       -1.47300       -2.00760
H          5.09250       -2.56480       -0.75410
H          4.14970       -3.22110       -2.21050
H          6.64610        0.59000        2.85030
H          4.52870       -1.66860        2.99170
H          4.25740       -0.12990        2.20910
H          4.60300       -0.12600        3.94280
H          6.74970       -2.37750        3.73020
H          6.69450       -0.93650        4.81510
H          8.13640       -1.24540        3.85750
H          8.56480       -1.93720        0.98620
H          8.74790       -0.48790        2.02670
H         10.59750       -1.00200       -0.23520
H         10.61830        0.41120        0.87630
H         10.53610        0.67410       -0.89600
H          8.49710       -1.63480       -1.47770
H          8.52460        0.03050       -2.08390
H          6.67200        0.99140       -2.69140
H          6.42850       -1.70430       -4.11150
H          7.93710       -0.73630       -3.97430
H          6.57950       -0.08400       -4.88790
H          4.26120       -0.71690       -3.42960
H          4.65210        0.92050       -3.91860
H          4.15480        0.66780       -2.23880
H          5.15210        3.08730        0.40720
H          7.97330        4.13900        0.23370
H          6.94850        4.05120        1.72640
H          6.43560        5.05670        0.32930
H          7.01070        3.03190       -1.99110
H          5.62290        4.11110       -1.70460
H          5.28750        2.42600       -1.87330
H          8.65580        1.86750        1.15760
H          8.42920        2.04640       -0.60570
