43

O         -0.32800       -1.08200        0.00300
C         -1.12410       -0.04080        0.05180
N         -0.42150        1.10760       -0.01290
C          0.86050        0.70740       -0.14820
C          0.90810       -0.67040       -0.09610
Pt        -0.91570       -3.04590        0.01600
Br         0.05890       -3.16360        2.28560
C         -1.67740       -2.78650       -1.93770
C         -1.62590       -1.69960       -2.64580
P         -1.62100       -5.40260        0.03160
N         -0.89190       -6.79120        0.93090
C          0.49800       -6.97510        0.44810
C         -0.69730       -6.46760        2.38010
N         -3.01750       -5.33870        1.16360
C         -4.06060       -4.49080        0.58520
C         -3.63870       -6.67870        1.39700
N         -1.84840       -5.86530       -1.68240
C         -0.58350       -5.74800       -2.44170
C         -2.39840       -7.21190       -1.86640
H         -2.19220       -0.09690        0.22220
H          1.69590        1.37610       -0.30720
H          1.77210       -1.30620       -0.24430
H         -2.20890       -3.63280       -2.41150
H         -1.13720       -0.79110       -2.30470
H         -2.05120       -1.66010       -3.64630
H          0.53600       -7.48300       -0.51820
H          1.08530       -7.64050        1.12350
H          1.05180       -6.00130        0.40960
H         -1.58220       -6.06310        2.90350
H          0.12370       -5.74740        2.55910
H         -0.40850       -7.38640        2.93320
H         -3.68400       -3.46660        0.40770
H         -4.92190       -4.42110        1.28840
H         -4.43910       -4.92320       -0.37260
H         -2.97900       -7.42260        1.88080
H         -4.00610       -7.15120        0.47140
H         -4.49970       -6.59710        2.09330
H         -0.01420       -4.83540       -2.16880
H         -0.80690       -5.69870       -3.52770
H          0.08140       -6.62110       -2.32610
H         -3.45090       -7.24550       -1.54790
H         -1.78990       -7.98060       -1.34200
H         -2.42160       -7.46980       -2.94910
