65

P          0.93040        0.00960        0.07110
C         -0.07860       -0.69240        1.64530
C         -1.62860       -0.75560        1.58780
C          0.32920       -2.18760        1.84730
C          0.15670        0.07020        3.01970
C          0.54200        1.90430       -0.05390
C          1.16950        2.71230        1.11050
C          1.07880        2.53240       -1.34140
C         -0.97210        2.22110       -0.07170
C          0.29280       -1.15110       -1.17990
C         -1.08370       -1.18370       -1.42570
C         -1.66920       -2.20830       -2.14730
C         -0.89130       -3.27970       -2.67790
N         -1.53480       -4.43810       -3.29840
C         -2.99360       -4.64080       -3.34250
C         -0.78650       -5.59670       -3.79410
C          0.51220       -3.14600       -2.55020
C          1.09320       -2.10880       -1.80050
Pt         3.39040        0.00960        0.07110
Br         3.67610        1.02380       -2.22050
C          3.31760       -0.95150        1.94380
C          4.05900       -1.86670        2.58150
N          5.49040        0.00960        0.07110
C          5.64050        0.74810        1.34850
N          6.15380        0.64100       -0.95790
C          7.35150        0.21020       -1.10590
C          7.56910       -0.86360       -0.27680
C          6.39330       -1.04270        0.42310
H         -2.02510       -1.45040        0.83930
H         -2.11890        0.21890        1.52590
H         -2.02020       -1.19060        2.53780
H         -0.02310       -2.80820        1.00260
H         -0.10320       -2.60440        2.78380
H          1.39710       -2.40380        1.91310
H         -0.31410        1.05930        3.02370
H          1.14060        0.22600        3.48470
H         -0.36300       -0.46960        3.84360
H          2.24950        2.48690        1.22350
H          0.67640        2.56000        2.07420
H          1.05690        3.80580        0.93210
H          2.15600        2.66280       -1.25230
H          0.74790        3.58990       -1.44420
H          0.74450        1.97730       -2.24200
H         -1.44330        2.01900        0.89480
H         -1.49450        1.70940       -0.90010
H         -1.14710        3.31250       -0.21500
H         -1.73790       -0.44480       -1.00020
H         -2.74450       -2.16710       -2.19840
H         -3.61020       -3.82190       -2.95610
H         -3.25870       -5.53550       -2.73060
H         -3.32230       -4.82610       -4.38430
H          0.30050       -5.49180       -3.76090
H         -1.06870       -5.79190       -4.85020
H         -1.05010       -6.48620       -3.18590
H          1.20190       -3.86150       -2.94850
H          2.16630       -2.09670       -1.64460
H          2.47470       -0.71490        2.47020
H          4.86360       -2.40730        2.16830
H          3.75210       -2.21490        3.56200
H          5.03780        1.67740        1.30310
H          6.69330        1.08590        1.53260
H          5.36910        0.22220        2.27770
H          8.05820        0.62670       -1.81030
H          8.46160       -1.46990       -0.19640
H          6.33230       -1.84140        1.10150
