65

P          0.91780       -0.03990       -0.04070
C         -0.24120        0.00310        1.39560
C         -1.56610        0.48350        1.33200
C         -2.35840        0.51750        2.50410
C         -1.84200        0.09900        3.72530
C         -0.56030       -0.42110        3.79270
C          0.21140       -0.49560        2.63680
C          0.65620        1.56740       -0.82130
C          1.11160        2.73300       -0.18890
C          0.88990        3.98870       -0.76510
C          0.21210        4.08820       -1.98270
C         -0.24380        2.93280       -2.62330
C         -0.02220        1.67340       -2.04630
C          0.35870       -1.65830       -0.64210
C         -1.01070       -1.85790       -0.91580
C         -1.50350       -3.12910       -1.22040
C         -0.63570       -4.21880       -1.26140
C          0.72880       -4.03380       -1.00990
C          1.22670       -2.75790       -0.69980
Pt         3.37780       -0.03990       -0.04070
Br         3.37780       -0.39680       -2.60600
C          3.37780        0.25630        2.08880
C          4.40620        0.29380        2.94270
C          5.52780       -0.03990       -0.04070
N          6.27850        0.66520       -0.82070
C          5.85400        1.72790       -1.70510
C          7.67480        0.52960       -0.47990
C          7.67250       -0.29810        0.79260
N          6.32820       -0.82240        0.85870
C          6.20790       -2.25760        1.03570
C          7.08160       -2.91010        1.94090
C          7.11550       -4.30030        2.06650
C          6.27170       -5.08740        1.28630
C          5.38790       -4.48100        0.38960
C          5.34610       -3.07590        0.25960
H         -1.98130        0.85050        0.41670
H         -3.37600        0.88810        2.46860
H         -2.44650        0.13420        4.63820
H         -0.15230       -0.77120        4.74010
H          1.17020       -0.96380        2.74550
H          1.63060        2.67250        0.76200
H          1.24050        4.88550       -0.26960
H          0.03770        5.06190       -2.42800
H         -0.77170        3.01560       -3.56520
H         -0.38870        0.78990       -2.55110
H         -1.71440       -1.04160       -0.86330
H         -2.56250       -3.27090       -1.40030
H         -1.02460       -5.20690       -1.47680
H          1.39150       -4.88720       -1.03030
H          2.27340       -2.64040       -0.46410
H          2.45400        0.53650        2.53510
H          5.42730        0.12940        2.69130
H          4.22530        0.52890        3.98580
H          4.79460        1.68830       -1.98040
H          6.51640        1.77280       -2.59560
H          5.99060        2.69310       -1.16330
H          8.16570        1.50740       -0.26320
H          8.18840        0.01680       -1.31880
H          7.82400        0.32590        1.69720
H          8.47670       -1.06620        0.72490
H          7.76520       -2.33580        2.54810
H          7.80520       -4.77210        2.75920
H          6.31660       -6.16780        1.37350
H          4.75650       -5.11460       -0.22190
H          4.68110       -2.65120       -0.47770
