52

P          1.04250        0.08980       -0.01190
C         -0.03340        0.71160        1.37350
C         -1.27030        0.15490        1.76170
C         -1.86800        0.51290        2.98520
C         -1.23760        1.40350        3.85860
C         -0.04210        1.99450        3.47670
C          0.52740        1.68040        2.24070
C          0.78920        1.38480       -1.24990
C          1.25580        2.68460       -0.99600
C          1.02760        3.71300       -1.91720
C          0.33220        3.45630       -3.09610
C         -0.11940        2.16300       -3.36910
C          0.11060        1.12990       -2.45460
C          0.37460       -1.59200       -0.10510
C         -0.84160       -1.84070       -0.77630
C         -1.47500       -3.08030       -0.67010
C         -0.89960       -4.09840        0.09620
C          0.29950       -3.85930        0.77630
C          0.93370       -2.61230        0.67770
Pt         3.50250        0.08980       -0.01190
Br         3.50250       -0.93100       -2.39220
C          3.50250        0.93710        1.96410
C          2.94980        0.26930        2.97740
N          5.60250        0.08980       -0.01190
C          6.32130       -0.46910       -1.04980
C          7.71490       -0.54830       -1.04920
C          8.43070       -0.03440        0.01390
Cl        10.18240       -0.14110        0.03500
C          7.74100        0.54590        1.06680
C          6.34060        0.59120        1.04150
H         -1.77460       -0.57850        1.16650
H         -2.80580        0.06210        3.27910
H         -1.66790        1.63070        4.82390
H          0.46240        2.67810        4.15160
H          1.45530        2.16730        2.02060
H          1.78480        2.90900       -0.08290
H          1.38150        4.71550       -1.70100
H          0.15040        4.25460       -3.80460
H         -0.65390        1.96400       -4.29150
H         -0.25060        0.14590       -2.70310
H         -1.34680       -1.06020       -1.32280
H         -2.42230       -3.24480       -1.16770
H         -1.40720       -5.04290        0.19990
H          0.72440       -4.63450        1.39710
H          1.83540       -2.43070        1.24500
H          4.05550        1.83940        2.19540
H          2.46210       -0.68200        2.80720
H          3.01980        0.66090        3.98780
H          5.88870       -0.91980       -1.90190
H          8.22970       -1.02590       -1.87460
H          8.28540        0.95370        1.90830
H          5.91310        1.03560        1.90470
