26
 
P 1.2200 -0.0995 -0.0944
F -0.2852 -0.6794 0.3521
F 0.8003 1.5124 0.0777
F 1.0874 -0.7589 -1.6441
Ag 3.6469 0.0471 -0.0347
C 5.6738 0.0760 -0.0272
N 6.4263 1.1715 -0.0360
C 5.9111 2.5308 -0.0384
C 4.3529 2.5205 -0.0086
C 7.7033 0.7328 -0.0583
C 7.6807 -0.6546 -0.0630
N 6.3944 -1.0451 -0.0466
C 5.8594 -2.4019 -0.0624
C 4.3193 -2.3945 -0.0586
H 6.2818 3.0483 -0.9533
H 6.3214 3.0717 0.8452
H 3.9265 1.9907 -0.8649
H 4.0297 3.5877 -0.0155
H 3.9526 1.9956 0.8644
H 8.5836 1.3577 -0.0789
H 8.5287 -1.3248 -0.0870
H 6.2399 -2.9480 0.8279
H 6.2198 -2.9201 -0.9771
H 3.9299 -1.8711 0.8300
H 3.9529 -3.4389 -0.0527
H 3.9292 -1.8773 -0.9532
