111
 
P 1.0634 0.0586 -0.0505
C 0.1589 -1.1882 0.9022
C -1.2088 -1.4625 0.8683
C -1.7517 -2.4056 1.7677
C -0.9291 -3.0863 2.6902
C -1.4689 -4.0624 3.6900
C 0.4253 -2.7980 2.7288
C 0.9370 -1.8163 1.8887
C 0.4461 1.4760 0.9931
C 0.6443 1.4388 2.3922
C 0.0896 2.3979 3.2459
C -0.6747 3.4514 2.7495
C -1.2610 4.4467 3.7347
C -0.8808 3.5311 1.3556
C -0.3368 2.5445 0.4860
C 0.5348 -0.1205 -1.7857
C -0.2522 -1.1586 -2.2967
C -0.5881 -1.1811 -3.6597
C -0.1402 -0.1688 -4.5277
C -0.4250 -0.2211 -5.9983
C 0.5943 0.8944 -4.0046
C 0.9020 0.9011 -2.6475
Ag 3.5234 0.0586 -0.0505
C 5.6734 0.0586 -0.0505
N 6.4433 -1.0060 -0.1783
C 6.2006 -2.5078 -0.2283
C 4.9237 -3.2293 -0.2052
C 3.5541 -2.6132 0.0024
C 2.9590 -2.2446 -1.2999
C 2.6176 -3.7146 0.6352
C 4.9107 -4.6861 -0.2785
C 5.9870 -5.4644 -0.3167
C 7.1632 -4.8705 -0.2457
C 7.3206 -3.4594 -0.1943
C 8.7337 -3.1577 0.1630
C 8.7273 -3.2209 1.7322
C 9.7292 -3.8846 -0.7683
C 7.7834 -0.4498 -0.2347
C 7.7081 1.0148 -0.3572
N 6.3885 1.2874 0.0329
C 5.9268 2.5512 0.5139
C 4.6233 3.0492 0.1439
C 3.6848 2.4699 -0.9616
C 2.9582 3.6398 -1.6952
C 4.3287 1.6956 -2.1628
C 4.1736 4.2198 0.8032
C 4.9266 4.8844 1.7447
C 6.1905 4.4493 2.0611
C 6.7502 3.3140 1.4591
C 8.1940 3.0056 1.9566
C 8.2725 1.6396 2.6983
C 9.3450 3.3724 0.9269
H -1.8460 -0.9410 0.1732
H -2.8116 -2.6019 1.7512
H -2.5752 -4.0769 3.6686
H -1.1476 -3.7234 4.7000
H -1.0727 -5.0886 3.5255
H 1.0905 -3.3192 3.4148
H 1.9844 -1.5913 1.9934
H 1.1952 0.6410 2.8598
H 0.2436 2.3109 4.3145
H -0.9970 4.1801 4.7852
H -2.3706 4.4546 3.6844
H -0.8711 5.4708 3.5590
H -1.4802 4.3418 0.9495
H -0.5491 2.6114 -0.5726
H -0.5998 -1.9514 -1.6597
H -1.1862 -1.9955 -4.0380
H -0.9929 -1.1374 -6.2599
H 0.5412 -0.2464 -6.5486
H -1.0014 0.6702 -6.3226
H 0.9332 1.7088 -4.6403
H 1.4284 1.7004 -2.2311
H 3.6337 -1.7954 0.7160
H 2.9853 -3.1191 -1.9937
H 3.4616 -1.3653 -1.7077
H 1.8868 -2.1077 -1.1609
H 2.3883 -4.5245 -0.0651
H 1.5497 -3.6161 0.6960
H 3.0506 -4.0441 1.6147
H 4.0864 -5.3621 -0.2610
H 5.9008 -6.5518 -0.3260
H 7.9572 -5.5904 -0.1789
H 9.1232 -2.2293 -0.0860
H 8.1474 -4.0845 2.1414
H 8.1472 -2.3562 2.1514
H 9.7194 -3.1945 2.2028
H 9.8582 -4.9394 -0.5207
H 10.7222 -3.3895 -0.7546
H 9.3633 -3.8307 -1.8317
H 8.4106 -0.7047 -1.1118
H 8.2378 -0.6662 0.7632
H 7.8943 1.4639 -1.3555
H 8.4904 1.2772 0.2940
H 2.8598 1.9379 -0.4926
H 3.6892 4.3991 -2.0296
H 2.1572 4.0732 -1.0620
H 2.4448 3.3664 -2.6346
H 4.9355 2.3683 -2.7984
H 3.5354 1.2453 -2.7905
H 4.9443 0.8215 -2.0322
H 3.2197 4.6720 0.6073
H 4.5235 5.7668 2.2235
H 6.7342 5.0173 2.8056
H 8.4723 3.7161 2.7634
H 7.7660 0.8031 2.2046
H 7.7096 1.6818 3.6510
H 9.3265 1.3478 2.8972
H 9.4937 2.8963 -0.0645
H 10.3333 3.2275 1.4147
H 9.2390 4.4305 0.6207
