55
 
P 1.0488 -0.0788 0.0376
C 0.2946 -1.8877 0.2263
C -1.2413 -1.9814 0.2318
C 0.7262 -2.9276 -0.8625
C 0.8330 -2.5303 1.5284
C 0.5856 0.9180 1.7262
C 1.2836 0.3185 2.9624
C 0.9734 2.4370 1.8837
C -0.9492 1.0059 1.9654
C 0.5835 0.5843 -1.6592
C 1.1085 2.0234 -2.1003
C 2.6541 2.0107 -2.0502
C 0.6327 2.3522 -3.5340
C 0.5976 3.2164 -1.2756
Ag 3.5088 -0.0788 0.0376
N 5.6088 -0.0788 0.0376
C 6.2891 -0.7121 -0.9546
Cl 5.4050 -1.4508 -2.2739
C 7.6857 -0.7930 -0.9032
C 8.3637 -0.2201 0.1760
C 7.6449 0.4288 1.1812
C 6.2527 0.4881 1.0928
H -1.6651 -1.7277 -0.7555
H -1.7331 -1.3876 0.9781
H -1.5539 -3.0155 0.5124
H 0.4427 -2.6381 -1.8901
H 0.1818 -3.8958 -0.6757
H 1.7941 -3.2323 -0.8145
H 0.2690 -2.1822 2.3880
H 1.9390 -2.3879 1.6199
H 0.6407 -3.6227 1.6012
H 2.3724 0.2355 2.7691
H 0.8833 -0.6090 3.3302
H 1.1243 0.9428 3.8694
H 2.0594 2.6547 1.8351
H 0.6705 2.8137 2.8939
H 0.3152 3.1488 1.3543
H -1.4214 0.0690 2.2249
H -1.4605 1.5117 1.1105
H -1.1955 1.5950 2.8771
H -0.5265 0.5855 -1.7259
H 0.9686 -0.1395 -2.4036
H 3.0434 1.2472 -2.7379
H 3.0531 1.7347 -1.0501
H 3.0403 3.0151 -2.3514
H 0.9587 1.5731 -4.2441
H 1.0563 3.3295 -3.8736
H -0.4768 2.4573 -3.5818
H 1.1720 3.2098 -0.3780
H -0.5130 3.2398 -1.1484
H 0.8920 4.2052 -1.7001
H 8.2388 -1.3048 -1.6802
H 9.4424 -0.2853 0.2383
H 8.1584 0.8685 2.0266
H 5.6794 0.9681 1.8748
