85
 
P 1.0224 -0.0971 -0.0083
C 0.3925 -1.6464 -0.7368
C -0.9597 -1.9682 -0.8849
C -1.3368 -3.2260 -1.3805
C -0.3743 -4.1918 -1.7421
O -0.7265 -5.4356 -2.1760
C -2.0199 -5.9298 -2.1714
C 0.9834 -3.8621 -1.6272
C 1.3658 -2.6020 -1.1270
C 0.4218 -0.2827 1.7038
C 0.7878 -1.3592 2.5343
C 0.1899 -1.5151 3.7946
C -0.7819 -0.6025 4.2522
O -1.4216 -0.7588 5.4437
C -1.2696 -1.8476 6.2820
C -1.1134 0.4890 3.4416
C -0.5187 0.6450 2.1844
C 0.5804 1.4590 -0.8434
C -0.1053 1.4930 -2.0793
C -0.3745 2.7221 -2.7066
C -0.0104 3.9281 -2.0982
O -0.2625 5.0888 -2.7589
C -0.4034 6.3334 -2.1817
C 0.6141 3.8916 -0.8366
C 0.9165 2.6697 -0.2299
Ag 3.4824 -0.0971 -0.0083
P 5.9424 -0.0971 -0.0083
C 6.6599 -1.0825 1.3381
C 6.3804 -2.4634 1.3961
C 6.6964 -3.2058 2.5419
C 7.2756 -2.5763 3.6453
C 7.5730 -1.2148 3.5912
C 7.2807 -0.4742 2.4435
C 6.4617 -1.0383 -1.4534
C 5.5345 -1.6058 -2.3366
C 5.9790 -2.1796 -3.5405
C 7.3409 -2.1716 -3.8682
C 8.2652 -1.6060 -2.9890
C 7.8292 -1.0475 -1.7842
C 6.3691 1.6510 0.3283
C 5.9698 2.3861 1.4696
O 5.2096 1.7888 2.4225
C 4.8379 2.3756 3.6166
C 6.3768 3.7395 1.5935
C 7.1387 4.3567 0.6035
C 7.5259 3.6385 -0.5202
C 7.1515 2.2992 -0.6539
H -1.7278 -1.2675 -0.6034
H -2.3894 -3.4482 -1.4646
H -2.0413 -6.9707 -2.5555
H -2.6723 -5.3055 -2.8171
H -2.4157 -5.9328 -1.1313
H 1.7407 -4.5934 -1.9022
H 2.4316 -2.3757 -1.0160
H 1.5092 -2.0995 2.2172
H 0.4712 -2.3638 4.4027
H -1.9129 -1.7331 7.1785
H -0.2132 -1.9249 6.6129
H -1.5672 -2.7806 5.7534
H -1.8567 1.2080 3.7682
H -0.8296 1.4775 1.5708
H -0.4204 0.5862 -2.5802
H -0.8726 2.7475 -3.6709
H -0.4218 7.1081 -2.9760
H 0.4338 6.5774 -1.4976
H -1.3683 6.3573 -1.6351
H 0.8984 4.7948 -0.3192
H 1.4116 2.6686 0.7307
H 5.8744 -2.9632 0.5789
H 6.4565 -4.2609 2.5934
H 7.4794 -3.1372 4.5490
H 7.9992 -0.7198 4.4540
H 7.4855 0.5802 2.4711
H 4.4757 -1.5719 -2.1085
H 5.2700 -2.6078 -4.2368
H 7.6818 -2.5889 -4.8089
H 9.3166 -1.5779 -3.2522
H 8.5565 -0.5764 -1.1340
H 4.1743 1.6861 4.1719
H 4.2814 3.3181 3.4247
H 5.7357 2.5917 4.2388
H 6.1044 4.3377 2.4511
H 7.4261 5.3968 0.7086
H 8.1167 4.1243 -1.2888
H 7.4754 1.7728 -1.5425
