54
 
P 1.0712 -0.1312 -0.1772
Cl -0.2751 -1.2462 -1.2686
Cl 0.7214 -1.0121 1.6952
Cl 0.3082 1.7597 -0.5417
Ag 3.4273 0.2335 -0.1865
P 5.8172 0.1361 0.1481
C 6.7717 0.3085 1.8104
C 6.4790 1.6120 2.6713
C 4.9873 1.6580 3.2589
C 4.6862 0.4014 4.0961
C 5.0945 -0.9251 3.4098
C 6.5347 -0.8282 2.8607
C 6.1698 -1.5504 -0.7983
C 5.4114 -2.6328 -0.0673
C 3.9047 -2.5058 -0.4049
C 3.5270 -2.7275 -1.8310
C 4.3365 -1.7627 -2.7002
C 5.8387 -1.8407 -2.3363
C 6.3357 1.5791 -0.8157
C 5.5014 2.7080 -0.9435
C 4.1742 2.8286 -0.2356
C 5.8954 3.7601 -1.7886
C 7.0500 3.6632 -2.5693
C 7.8686 2.5426 -2.4664
C 7.5374 1.5180 -1.5703
H 7.8410 0.3113 1.5310
H 6.8760 2.4964 2.1314
H 7.1736 1.6428 3.5590
H 4.1722 1.7186 2.5315
H 4.7689 2.5610 3.8887
H 3.6074 0.3609 4.3978
H 5.2932 0.5023 5.0179
H 4.4132 -1.3098 2.6148
H 5.0510 -1.7033 4.2027
H 6.8615 -1.8142 2.5159
H 7.1925 -0.6097 3.7306
H 7.2715 -1.7224 -0.7310
H 5.6503 -2.4400 0.9709
H 5.7661 -3.6538 -0.3015
H 3.6870 -1.5245 -0.3628
H 3.2015 -3.0424 0.2386
H 2.4434 -2.4825 -1.9584
H 3.6776 -3.8060 -2.0276
H 3.9951 -0.7221 -2.4868
H 4.1135 -2.0288 -3.7653
H 6.4436 -1.2248 -3.0297
H 6.1284 -2.9101 -2.5446
H 3.9330 2.0148 0.4527
H 3.3672 2.8808 -0.9986
H 4.1570 3.7277 0.3977
H 5.2858 4.6495 -1.8640
H 7.3052 4.4546 -3.2640
H 8.7541 2.4701 -3.0919
H 8.2077 0.6670 -1.5133
