53
 
P 1.0660 -0.0694 0.0288
C 0.3597 -1.7526 0.2536
C 1.2648 -2.8628 0.3353
C 2.7376 -2.8061 0.0118
C 0.7973 -4.1299 0.7064
C -0.5487 -4.3456 0.9551
C -1.4548 -3.2974 0.8148
C -1.0124 -2.0093 0.4689
C 0.6058 1.0229 1.4365
C 1.5342 1.7622 2.2225
C 3.0127 1.7831 1.9103
C 1.0514 2.5486 3.3068
C -0.3155 2.6304 3.5877
C -1.2212 1.9535 2.7857
C -0.7654 1.1679 1.7305
C 0.5476 0.1644 -1.7164
C 1.3119 -0.0775 -2.8977
C 2.7053 -0.6319 -2.9256
C 0.7594 0.2512 -4.1577
C -0.4914 0.8560 -4.2659
C -1.2234 1.1297 -3.1213
C -0.7144 0.7833 -1.8707
Ag 3.5260 -0.0694 0.0288
C 5.6760 -0.0694 0.0288
N 6.4419 -0.9251 -0.6727
H 6.1168 -1.7038 -1.2868
C 7.7114 -0.5787 -0.3884
Cl 9.1322 -1.3918 -1.0156
C 7.6908 0.5028 0.4670
Cl 9.0740 1.3698 1.1070
N 6.4103 0.8074 0.7374
H 3.0688 -1.8864 -0.4336
H 2.9458 -3.5479 -0.7865
H 3.3709 -3.0178 0.8959
H 1.4895 -4.9611 0.7962
H -0.8840 -5.3351 1.2425
H -2.5041 -3.4888 0.9981
H -1.7562 -1.2398 0.4045
H 3.2123 1.8644 0.8338
H 3.5784 1.1392 2.6089
H 3.3570 2.8106 2.1909
H 1.7250 3.1174 3.9385
H -0.6811 3.2322 4.4143
H -2.2853 2.0321 2.9794
H -1.5145 0.6811 1.1463
H 3.1991 -0.6642 -1.9489
H 3.3427 0.0332 -3.5454
H 2.6840 -1.6369 -3.3997
H 1.3174 0.0736 -5.0695
H -0.8858 1.1329 -5.2372
H -2.1852 1.6240 -3.2003
H -1.3171 1.0384 -1.0158
H 6.0542 1.5781 1.3446
