39
 
P 1.0475 0.0575 0.0666
C 0.3035 0.1557 1.7565
C -1.2140 0.1949 1.8465
C 0.8699 -0.9969 2.6023
C 0.4982 1.5451 -0.8596
C 0.9851 2.8609 -0.2652
C 0.9373 1.4228 -2.3251
C 0.5722 -1.5935 -0.5346
Ag 3.5075 0.0575 0.0666
N 5.6075 0.0575 0.0666
C 6.0662 -1.3320 -0.0628
C 6.0641 0.8658 -1.0717
C 6.0693 0.6393 1.3344
H 0.6907 1.0889 2.2218
H -1.6649 -0.6974 1.3739
H -1.6016 1.1268 1.3899
H -1.5017 0.2091 2.9239
H 0.5067 -1.9792 2.2405
H 0.5651 -0.8915 3.6647
H 1.9837 -0.9921 2.5688
H -0.6132 1.5418 -0.8402
H 2.0866 2.9558 -0.3614
H 0.6868 2.9434 0.7975
H 0.5034 3.7009 -0.8153
H 2.0455 1.3847 -2.4034
H 0.5633 2.2852 -2.9181
H 0.5180 0.4992 -2.7814
H -0.5384 -1.6453 -0.5659
H 0.9747 -2.4127 0.0853
H 0.9377 -1.7083 -1.5760
H 5.6826 -1.7775 -1.0053
H 5.6760 -1.9434 0.7790
H 7.1784 -1.3867 -0.0656
H 5.6793 0.4413 -2.0234
H 7.1763 0.9002 -1.1162
H 5.6725 1.9020 -0.9867
H 5.6843 0.0466 2.1917
H 5.6851 1.6760 1.4443
H 7.1816 0.6609 1.3823
