73
 
P 0.9253 -0.0452 0.0488
C 0.2307 1.5956 -0.2518
C -1.1409 1.8669 -0.4968
C -2.1765 0.7986 -0.6207
C -1.5847 3.1935 -0.5535
C -0.7067 4.2589 -0.3345
C -1.2068 5.6740 -0.3718
C 0.6429 4.0028 -0.0666
C 1.1428 2.6854 -0.0467
C 2.6271 2.4638 0.2847
C 0.6595 -1.0363 -1.5576
C 1.1960 -0.5991 -2.8452
C 1.7724 0.7544 -3.2078
C 1.1643 -1.4481 -3.9680
C 0.5519 -2.6825 -3.9365
C 0.5540 -3.5657 -5.1585
C -0.1126 -3.0647 -2.7830
C -0.0986 -2.2834 -1.6010
C -0.9846 -2.8618 -0.4935
C 0.3818 -0.6130 1.8034
C -0.4439 0.2108 2.6622
C -0.8318 1.6247 2.4787
C -0.9429 -0.2301 3.8806
C -0.6475 -1.4578 4.3883
C -1.2176 -1.7903 5.7447
C 0.1937 -2.2976 3.6512
C 0.7251 -1.9024 2.3777
C 1.6874 -2.8793 1.7332
Ag 3.3853 -0.0452 0.0488
N 5.4853 -0.0452 0.0488
C 6.1266 -1.2085 0.3391
C 7.5184 -1.2298 0.4639
C 8.2402 -0.0538 0.2499
C 7.5653 1.1240 -0.0791
C 6.1695 1.1117 -0.1600
H -1.7175 -0.1733 -0.5238
H -2.6882 0.8477 -1.6007
H -2.9217 0.8971 0.1979
H -2.6358 3.3939 -0.7266
H -2.2875 5.7175 -0.6276
H -0.6446 6.2346 -1.1468
H -1.0595 6.1654 0.6137
H 1.3008 4.8409 0.1375
H 3.0765 3.4270 0.6270
H 3.1683 2.1598 -0.6196
H 2.7657 1.7696 1.1295
H 1.7144 1.5098 -2.4189
H 1.1649 1.1674 -4.0591
H 2.8050 0.6663 -3.6068
H 1.6130 -1.1330 -4.9073
H 1.1588 -3.1278 -5.9832
H -0.4850 -3.6934 -5.5220
H 0.9878 -4.5627 -4.9231
H -0.6423 -4.0109 -2.8129
H -1.6407 -3.6627 -0.8991
H -1.7128 -2.1477 -0.0932
H -0.5027 -3.3553 0.3448
H -0.1208 2.1507 1.9107
H -0.5847 2.1912 3.3994
H -1.9122 1.7273 2.2486
H -1.5683 0.4336 4.4752
H -1.8500 -0.9571 6.1419
H -0.3979 -1.9319 6.4765
H -1.8686 -2.6818 5.6842
H 0.4441 -3.2562 4.0940
H 1.7460 -3.8289 2.3189
H 2.6961 -2.4320 1.6970
H 1.4516 -3.1634 0.7031
H 5.5496 -2.1036 0.5312
H 8.0303 -2.1434 0.7379
H 9.3186 -0.0540 0.3456
H 8.1167 2.0389 -0.2527
H 5.6322 2.0197 -0.3962
