81
 
P 0.9293 0.0143 0.0693
C 0.1695 0.3373 -1.5269
C -1.1994 0.3578 -1.7832
C -1.6533 0.5474 -3.0931
C -0.7437 0.7181 -4.1611
O -1.1495 0.8107 -5.4534
C -2.4482 0.6179 -5.8776
C 0.6243 0.7656 -3.8852
C 1.0734 0.5835 -2.5789
C 0.4875 -1.7204 0.1170
C 0.8082 -2.6382 -0.8800
C 0.3912 -3.9672 -0.7521
C -0.3381 -4.3951 0.3813
O -0.7596 -5.6765 0.5331
C -0.6090 -6.6664 -0.4148
C -0.6385 -3.4703 1.3842
C -0.2331 -2.1451 1.2496
C 0.4620 1.1519 1.3608
C -0.8945 1.3095 1.6733
C -1.2930 2.1768 2.6810
C -0.3375 2.9088 3.4063
O -0.7085 3.7932 4.3736
C -2.0193 4.1161 4.6893
C 1.0326 2.7170 3.1155
C 1.4356 1.8301 2.0925
Ag 3.3893 0.0143 0.0693
P 5.8493 0.0143 0.0693
C 6.5127 -1.3189 1.1281
C 7.2947 -2.4045 0.6762
C 7.5455 -3.4985 1.5301
C 7.0230 -3.5229 2.8270
C 6.2688 -2.4467 3.2878
C 6.0170 -1.3568 2.4471
C 6.1422 -0.4410 -1.6713
C 5.0413 -0.5991 -2.5294
C 5.2551 -0.7430 -3.9233
C 6.5555 -0.7487 -4.4518
C 7.6503 -0.6175 -3.5972
C 7.4487 -0.4576 -2.2160
C 6.4075 1.5920 0.8022
C 5.4852 2.5739 1.1924
C 5.9371 3.8485 1.5699
C 7.2994 4.1454 1.5518
C 8.2017 3.1556 1.1608
O 9.3942 3.4095 1.1168
N 7.7424 1.9066 0.7960
H -1.9147 0.2110 -0.9934
H -2.7170 0.5358 -3.2696
H -2.4953 0.6805 -6.9829
H -3.1059 1.3969 -5.4412
H -2.8019 -0.3920 -5.5693
H 1.3463 0.9146 -4.6831
H 2.1398 0.6095 -2.3942
H 1.3636 -2.3288 -1.7530
H 0.6412 -4.6563 -1.5427
H -1.0155 -7.6212 -0.0267
H 0.4675 -6.8089 -0.6474
H -1.1628 -6.3877 -1.3375
H -1.1918 -3.7708 2.2690
H -0.4851 -1.4496 2.0422
H -1.6578 0.7555 1.1483
H -2.3524 2.2695 2.8848
H -2.0406 4.8840 5.4888
H -2.5639 3.2170 5.0503
H -2.5404 4.5299 3.7966
H 1.7801 3.2573 3.6818
H 2.4895 1.6377 1.8482
H 7.6728 -2.4498 -0.3330
H 8.1165 -4.3514 1.1831
H 7.1861 -4.3811 3.4719
H 5.8496 -2.4728 4.2876
H 5.3807 -0.5628 2.8157
H 4.0297 -0.5732 -2.0857
H 4.4223 -0.8298 -4.6106
H 6.7198 -0.8441 -5.5241
H 8.6537 -0.6103 -4.0153
H 8.3170 -0.3073 -1.5887
H 4.4280 2.3745 1.1587
H 5.2330 4.6228 1.8504
H 7.6471 5.1401 1.8208
H 8.4389 1.2028 0.4628
