52
 
P 1.0083 -0.0554 -0.0828
C 0.2345 -0.5688 1.4734
C -1.1348 -0.4915 1.6941
C -1.6744 -0.8453 2.9417
C -3.1313 -0.6425 3.1985
C -0.8422 -1.3453 3.9577
C 0.5292 -1.4672 3.7353
C 1.0706 -1.0634 2.5068
C 0.4153 1.6474 -0.1341
C 0.7740 2.5916 0.8170
C 0.1775 3.8644 0.8038
C 0.4722 4.8321 1.9019
C -0.7401 4.2070 -0.2051
C -1.0567 3.2849 -1.2020
C -0.4874 2.0071 -1.1659
C 0.6440 -1.3756 -1.2554
C -0.6892 -1.7246 -1.5746
C -0.9671 -2.7769 -2.4637
C -2.3888 -3.2171 -2.7191
C 0.0988 -3.4445 -3.0813
C 1.4276 -3.0688 -2.8022
C 1.7125 -2.0360 -1.8751
Ag 3.4683 -0.0554 -0.0828
O 5.5183 -0.0554 -0.0828
C 6.2919 0.7661 0.5790
N 7.5918 0.4639 0.3783
C 7.5658 -0.6000 -0.4538
C 6.2547 -0.9112 -0.7376
H -1.7720 -0.1210 0.9095
H -3.6351 -0.2270 2.3004
H -3.2358 0.0990 4.0186
H -3.6234 -1.5924 3.4867
H -1.2531 -1.6286 4.9218
H 1.1692 -1.8570 4.5235
H 2.1448 -1.1482 2.3712
H 1.4828 2.3178 1.5825
H 1.2168 4.4124 2.6103
H -0.4708 5.0065 2.4612
H 0.8505 5.7941 1.5014
H -1.2162 5.1819 -0.2133
H -1.7663 3.5532 -1.9809
H -0.7801 1.2975 -1.9342
H -1.5193 -1.1992 -1.1228
H -3.1222 -2.5763 -2.1829
H -2.5083 -4.2521 -2.3311
H -2.6430 -3.2110 -3.8010
H -0.1062 -4.2579 -3.7750
H 2.2262 -3.6014 -3.3012
H 2.7503 -1.7175 -1.6058
H 5.9405 1.5717 1.2090
H 8.4418 -1.1174 -0.8217
H 5.8815 -1.7106 -1.3643
