79
 
P 1.0215 0.0040 -0.0976
C 0.5544 -1.7144 -0.8441
C -0.7496 -2.2750 -1.0106
C -1.9707 -1.5501 -0.6355
C -0.9465 -3.5973 -1.5148
C 0.1347 -4.4252 -1.8292
C 0.0203 -5.8467 -2.3209
C 1.3987 -3.9267 -1.6678
C 1.6188 -2.6204 -1.2017
C 3.0378 -2.2582 -1.0744
C 0.3168 0.1444 1.6865
C 0.7480 -0.7133 2.7624
C 1.6810 -1.8605 2.6352
C 0.3038 -0.5295 4.0851
C -0.6050 0.4495 4.4194
C -1.0318 0.6559 5.8419
C -1.1243 1.2427 3.4220
C -0.7031 1.1285 2.0767
C -1.4227 2.1171 1.1828
C 0.6294 1.4519 -1.3741
C -0.4460 1.6412 -2.3697
C -1.5084 0.7061 -2.7900
C -0.6660 2.8718 -3.0222
C 0.0577 3.9941 -2.7493
C -0.2879 5.2611 -3.5064
C 1.0702 3.8992 -1.7975
C 1.3686 2.6646 -1.1424
C 2.5410 2.6567 -0.2131
Ag 3.4815 0.0040 -0.0976
N 5.5815 0.0040 -0.0976
C 6.2463 0.1273 1.0754
C 5.4462 0.3862 2.2969
C 7.6490 -0.0146 1.1127
C 8.3415 -0.2976 -0.0668
C 7.6477 -0.3677 -1.2679
C 6.2581 -0.1908 -1.2729
C 5.5330 -0.1898 -2.5771
H -1.7034 -0.5846 -0.1783
H -2.5416 -2.1088 0.1184
H -2.5862 -1.4626 -1.5601
H -1.9491 -3.9943 -1.6308
H -1.0271 -6.1643 -2.4836
H 0.5001 -6.5348 -1.5850
H 0.5846 -5.9484 -3.2756
H 2.2271 -4.5947 -1.9014
H 3.7216 -3.0482 -1.4723
H 3.2530 -2.2059 -0.0020
H 3.1524 -1.2964 -1.6131
H 1.9355 -2.0451 1.6000
H 1.1746 -2.7744 3.0270
H 2.5827 -1.6686 3.2556
H 0.6770 -1.1664 4.8805
H -0.5194 -0.0516 6.5278
H -2.1279 0.5107 5.9269
H -0.7665 1.6904 6.1529
H -1.8601 1.9851 3.7245
H -2.3137 2.5668 1.6945
H -1.8794 1.6372 0.3000
H -0.7823 2.9973 0.9958
H -1.9829 0.4728 -1.8757
H -1.1509 0.0023 -3.5690
H -2.4151 1.1909 -3.2342
H -1.4632 2.9869 -3.7576
H -1.1031 5.0958 -4.2540
H 0.5938 5.5988 -4.0833
H -0.6514 6.0589 -2.8263
H 1.6418 4.7945 -1.5816
H 2.9486 3.6696 -0.0314
H 3.3123 2.0675 -0.7449
H 2.3215 2.1931 0.7694
H 4.3389 0.3968 1.9937
H 5.7795 1.3605 2.7263
H 5.6736 -0.4075 3.0424
H 8.2018 0.0642 2.0397
H 9.4148 -0.4503 -0.0605
H 8.1862 -0.5672 -2.1880
H 6.2288 -0.2848 -3.4360
H 4.9884 0.7745 -2.6789
H 4.8534 -1.0367 -2.6448
