62
 
P 0.9243 -0.0450 -0.0475
C 0.0639 -0.5585 1.4786
C -1.3229 -0.5121 1.6884
C -1.8578 -0.7896 2.9555
C -1.0243 -1.1530 4.0173
Cl -1.7000 -1.4827 5.6035
C 0.3506 -1.2419 3.8144
C 0.8869 -0.9346 2.5619
C 0.4504 1.6677 -0.3525
C 1.4515 2.6110 -0.5384
C 1.1230 3.9695 -0.7011
C -0.2203 4.3758 -0.6878
Cl -0.6495 6.0710 -0.8451
C -1.2292 3.4223 -0.5539
C -0.8967 2.0763 -0.4004
C 0.5435 -1.5335 -1.0106
C -0.1974 -1.3718 -2.2022
C -0.5078 -2.4721 -3.0106
C -0.0799 -3.7479 -2.6407
Cl -0.4683 -5.1311 -3.6518
C 0.6586 -3.9184 -1.4635
C 0.9692 -2.8168 -0.6498
Ag 3.3843 -0.0450 -0.0475
C 5.5343 -0.0450 -0.0475
N 6.2801 -1.0606 0.3694
C 5.7360 -2.3052 0.8992
C 6.2533 -2.4928 2.3331
C 4.1748 -2.2835 0.8381
C 7.5648 -0.6649 0.2049
C 7.5566 0.6152 -0.3308
N 6.2719 0.9869 -0.4816
C 5.7347 2.2287 -1.0318
C 4.8218 1.8870 -2.2141
C 4.9598 2.9748 0.0532
H -2.0033 -0.2355 0.9121
H -2.9238 -0.7079 3.1162
H 1.0065 -1.5257 4.6311
H 1.9563 -0.9768 2.4547
H 2.4696 2.2447 -0.5530
H 1.9023 4.7082 -0.8281
H -2.2725 3.7203 -0.5590
H -1.7065 1.3824 -0.3119
H -0.5358 -0.3911 -2.5169
H -1.0771 -2.3346 -3.9246
H 0.9927 -4.9076 -1.1820
H 1.5389 -2.9659 0.2516
H 6.1081 -3.1469 0.2739
H 5.9285 -1.6473 2.9772
H 7.3670 -2.5149 2.3375
H 5.8939 -3.4475 2.7652
H 3.7649 -1.4649 1.4362
H 3.7827 -3.2475 1.2176
H 3.8019 -2.1337 -0.1888
H 8.4407 -1.2497 0.4510
H 8.4133 1.2251 -0.5889
H 6.5601 2.8833 -1.3883
H 3.9710 1.2576 -1.8529
H 5.4059 1.3299 -2.9810
H 4.4215 2.8084 -2.6869
H 4.2049 2.3006 0.5024
H 4.4750 3.8826 -0.3698
H 5.6402 3.2811 0.8714
