37
 
P 0.9651 0.0714 -0.0607
C 0.2162 -1.6166 0.0491
C -1.3021 -1.7047 0.0870
C 0.7833 -2.4734 -1.0953
C 0.4175 1.0085 1.4208
C 0.9037 0.4209 2.7403
C 0.8593 2.4725 1.2901
C 0.4986 0.6533 -1.7211
Ag 3.4251 0.0714 -0.0607
N 5.5251 0.0714 -0.0607
C 6.1669 -0.5254 -1.1005
C 7.5599 -0.6416 -1.0937
Cl 8.3909 -1.4369 -2.4182
C 8.2796 -0.1375 -0.0076
C 7.6018 0.4774 1.0481
C 6.2069 0.5713 1.0044
H 0.6007 -2.0749 0.9866
H -1.7531 -1.2399 -0.8094
H -1.6908 -1.2402 1.0146
H -1.5909 -2.7817 0.1103
H 0.4208 -2.1222 -2.0817
H 0.4796 -3.5350 -0.9799
H 1.8971 -2.4389 -1.0900
H -0.6939 0.9909 1.4179
H 2.0055 0.5150 2.8342
H 0.6034 -0.6407 2.8298
H 0.4237 0.9770 3.5772
H 1.9677 2.5491 1.2530
H 0.4855 3.0712 2.1487
H 0.4417 2.9238 0.3633
H -0.6115 0.6839 -1.7803
H 0.9061 0.0229 -2.5301
H 0.8663 1.6926 -1.8472
H 5.5876 -0.9295 -1.9206
H 9.3579 -0.2307 0.0230
H 8.1512 0.8615 1.8977
H 5.6652 1.0208 1.8259
