90
 
P 1.0628 -0.0764 -0.0150
C 0.2738 -0.4455 1.5605
C -1.0973 -0.3703 1.7427
C -1.6480 -0.6476 2.9898
C -0.8412 -1.0339 4.0812
O -1.3755 -1.2785 5.3075
C -2.7092 -1.0786 5.6145
C 0.5416 -1.1601 3.8891
C 1.0979 -0.8592 2.6368
C 0.4889 1.6167 -0.1712
C 0.8618 2.6188 0.7085
C 0.2939 3.8850 0.5923
C -0.6538 4.1763 -0.4133
O -1.2726 5.3850 -0.4789
C -1.1231 6.3721 0.4779
C -0.9774 3.1835 -1.3472
C -0.4068 1.9101 -1.2278
C 0.6996 -1.4085 -1.1894
C -0.0470 -2.5415 -0.8367
C -0.2793 -3.5521 -1.7716
C 0.2184 -3.4520 -3.0853
O 0.0427 -4.4460 -3.9973
C -0.4909 -5.6869 -3.7008
C 0.9262 -2.2996 -3.4528
C 1.1678 -1.2888 -2.5111
Ag 3.5228 -0.0764 -0.0150
P 5.9828 -0.0764 -0.0150
C 6.6684 -0.6904 1.5402
C 6.3471 -0.0065 2.7213
C 6.7597 -0.4932 3.9698
C 6.4706 0.2827 5.2196
C 7.4532 -1.7088 4.0424
C 7.7345 -2.4251 2.8765
C 7.3518 -1.9187 1.6285
C 6.5129 -1.1489 -1.3476
C 5.5729 -1.7409 -2.1923
C 6.0130 -2.5510 -3.2606
C 5.0332 -3.2347 -4.1600
C 7.3904 -2.7368 -3.4809
C 8.3243 -2.1123 -2.6552
C 7.8887 -1.3191 -1.5943
C 6.4296 1.6673 0.0524
C 7.7870 2.0407 0.0288
C 8.1577 3.3951 0.0196
C 9.6066 3.7947 0.0615
C 7.1594 4.3789 -0.0115
C 5.8094 4.0096 -0.0464
C 5.4433 2.6573 -0.0107
H -1.7384 -0.0846 0.9259
H -2.7147 -0.5522 3.0914
H -2.9099 -1.3442 6.6702
H -3.3454 -1.7161 4.9640
H -2.9748 -0.0084 5.4586
H 1.1853 -1.4784 4.7073
H 2.1735 -0.9594 2.5118
H 1.5713 2.4179 1.4945
H 0.5856 4.6282 1.3136
H -1.7535 7.2489 0.2343
H -0.0618 6.6948 0.5186
H -1.4312 5.9830 1.4758
H -1.6909 3.3833 -2.1443
H -0.6953 1.1466 -1.9453
H -0.4516 -2.6664 0.1559
H -0.8454 -4.4166 -1.4573
H -0.5125 -6.3227 -4.6082
H -1.5291 -5.5774 -3.3229
H 0.1359 -6.1904 -2.9306
H 1.3053 -2.1907 -4.4637
H 1.7271 -0.4129 -2.8160
H 5.7649 0.9050 2.6685
H 5.8986 1.2094 4.9987
H 7.4385 0.5775 5.6753
H 5.8932 -0.3266 5.9462
H 7.7621 -2.1067 5.0022
H 8.2419 -3.3802 2.9435
H 7.5557 -2.5166 0.7526
H 4.5111 -1.5591 -2.0034
H 3.9902 -2.9596 -3.9013
H 5.1536 -4.3306 -4.0347
H 5.2220 -2.9680 -5.2224
H 7.7425 -3.3582 -4.2969
H 9.3859 -2.2440 -2.8359
H 8.6301 -0.8386 -0.9683
H 8.5592 1.2829 0.0147
H 10.2782 2.9104 0.0187
H 9.7927 4.3203 1.0209
H 9.8678 4.4730 -0.7794
H 7.4283 5.4293 -0.0231
H 5.0467 4.7752 -0.1022
H 4.3970 2.3797 -0.0551
