54
 
P 0.9425 0.0575 -0.0582
C 0.1178 -0.2697 -1.6278
C -1.2642 -0.3717 -1.8124
C -1.7773 -0.6577 -3.0855
C -0.9175 -0.8479 -4.1742
F -1.4195 -1.1564 -5.3955
C 0.4603 -0.7246 -4.0017
C 0.9739 -0.4305 -2.7379
C 0.5197 -1.5574 0.6643
C 0.8705 -2.7935 0.1028
C 0.5005 -3.9889 0.7471
C -0.2098 -3.9591 1.9537
F -0.5543 -5.1149 2.5774
C -0.5631 -2.7357 2.5188
C -0.2059 -1.5449 1.8776
C 0.4210 1.6650 0.6059
C -0.9492 1.9541 0.7980
C -1.3578 3.1662 1.3632
C -0.4058 4.1025 1.7602
F -0.8078 5.2747 2.3166
C 0.9584 3.8221 1.5951
C 1.3768 2.6043 1.0173
Ag 3.4025 0.0575 -0.0582
N 5.5025 0.0575 -0.0582
C 6.1391 1.1923 0.3028
C 7.5220 1.2898 0.1811
C 8.2828 0.2021 -0.3258
N 9.7143 0.3144 -0.5665
C 10.4752 1.5375 -0.3229
C 10.5120 -0.7570 -1.1564
C 7.5605 -0.9851 -0.6297
C 6.1745 -1.0302 -0.4920
H -1.9447 -0.2439 -0.9915
H -2.8448 -0.7427 -3.2261
H 1.1312 -0.8640 -4.8430
H 2.0504 -0.3410 -2.6259
H 1.4199 -2.8346 -0.8252
H 0.7655 -4.9444 0.3158
H -1.1121 -2.7106 3.4552
H -0.4948 -0.6102 2.3438
H -1.7187 1.2495 0.5348
H -2.4142 3.3751 1.5039
H 1.6847 4.5520 1.9263
H 2.4385 2.3678 0.9021
H 5.5589 2.0395 0.6466
H 7.9322 2.2412 0.4609
H 9.9103 2.3783 0.0967
H 10.9038 1.9014 -1.2816
H 11.3051 1.3288 0.3835
H 9.9749 -1.6863 -1.3793
H 11.3437 -1.0256 -0.4730
H 10.9373 -0.4087 -2.1222
H 8.0043 -1.8857 -1.0079
H 5.6251 -1.9201 -0.7715
