48
 
P 0.9886 0.0049 -0.0992
C 0.2321 -1.5996 0.4873
C -1.2946 -1.5860 0.5202
C 0.7483 -2.7216 -0.4650
C 0.7195 -1.9453 1.9138
C 0.4642 1.0800 1.2821
C 1.2557 1.4155 2.3949
C 0.7392 2.2756 3.3872
C -0.5435 2.8247 3.2618
C -1.3063 2.5438 2.1349
C -0.8035 1.6891 1.1577
C 0.5009 0.3732 -1.8228
C -0.8644 0.4768 -2.1982
C -1.2403 0.7580 -3.5123
C -0.2649 0.9755 -4.4775
C 1.0905 0.9320 -4.1187
C 1.4794 0.6287 -2.7937
Ag 3.4486 0.0049 -0.0992
N 5.5486 0.0049 -0.0992
C 6.2199 -0.1550 1.0689
Cl 5.3077 -0.4349 2.5370
C 7.6171 -0.0559 1.0900
C 8.3003 0.2080 -0.1016
C 7.5871 0.3541 -1.2932
C 6.1953 0.2450 -1.2706
H -1.7352 -1.4277 -0.4714
H -1.6422 -0.8124 1.2312
H -1.6746 -2.5672 0.8713
H 0.4417 -2.5620 -1.5217
H 0.3800 -3.7252 -0.1581
H 1.8631 -2.7765 -0.4602
H 0.3646 -1.1898 2.6411
H 1.8265 -2.0164 1.9908
H 0.2975 -2.9252 2.2323
H 2.2536 1.0158 2.5070
H 1.3273 2.5242 4.2598
H -0.9468 3.4782 4.0271
H -2.2902 2.9852 2.0127
H -1.4229 1.5144 0.2968
H -1.6728 0.3547 -1.5045
H -2.2927 0.8114 -3.7790
H -0.5682 1.1896 -5.4976
H 1.8315 1.1347 -4.8787
H 2.5353 0.5997 -2.5014
H 8.1671 -0.1633 2.0159
H 9.3785 0.3066 -0.1023
H 8.1043 0.5650 -2.2207
H 5.6230 0.3761 -2.1797
