65
 
P 0.9308 -0.0722 -0.0017
C -0.0699 1.4655 0.3157
C 0.1107 2.1332 1.7336
C 1.5478 2.6267 2.0278
C 2.0482 3.5711 0.9282
C 1.9012 2.9103 -0.4541
C 0.4136 2.5148 -0.7089
C 0.6458 -0.6657 -1.7730
C 1.4193 -1.9798 -2.0738
C 0.7481 -3.2277 -1.4454
C -0.6746 -3.4178 -2.0018
C -1.5193 -2.1742 -1.7339
C -0.8354 -0.8773 -2.2379
C 0.4576 -1.1987 1.4377
C 1.3925 -1.8257 2.3222
C 2.8377 -1.5160 2.3639
C 0.9810 -2.8111 3.2398
C -0.3443 -3.1992 3.3277
C -1.2893 -2.5710 2.5289
C -0.9006 -1.5700 1.6177
Ag 3.3908 -0.0722 -0.0017
N 5.4908 -0.0722 -0.0017
C 6.1140 0.8232 0.8032
C 7.5126 0.9577 0.7688
O 8.1746 1.8710 1.5250
C 7.5787 2.7520 2.4056
C 8.2381 0.1373 -0.1032
C 7.5730 -0.7837 -0.9183
C 6.1800 -0.8707 -0.8566
H -1.1449 1.2281 0.1828
H -0.2175 1.4663 2.5574
H -0.5462 3.0360 1.7753
H 2.2263 1.7557 2.1053
H 1.5822 3.1704 3.0039
H 3.1136 3.8362 1.1183
H 1.4648 4.5211 0.9553
H 2.5903 2.0134 -0.5307
H 2.2256 3.6380 -1.2260
H 0.3040 2.1133 -1.7322
H -0.2325 3.4195 -0.6502
H 1.0822 0.1247 -2.4148
H 2.4857 -1.8640 -1.7404
H 1.4071 -2.1557 -3.1774
H 0.7174 -3.1326 -0.3439
H 1.3327 -4.1423 -1.6857
H -1.1601 -4.3030 -1.5251
H -0.6316 -3.6087 -3.0951
H -1.6936 -2.1524 -0.6717
H -2.5243 -2.2920 -2.1981
H -1.4556 0.0122 -2.0048
H -0.8189 -0.9793 -3.3466
H 3.0345 -0.6245 1.8109
H 3.4254 -2.3935 2.0196
H 3.1277 -1.2295 3.3935
H 1.7037 -3.2906 3.8924
H -0.6322 -3.9769 4.0290
H -2.3257 -2.8791 2.6136
H -1.6824 -1.1117 1.0399
H 5.5039 1.4441 1.4440
H 8.3507 3.4204 2.8364
H 7.0846 2.1928 3.2286
H 6.8308 3.3807 1.8743
H 9.3160 0.2241 -0.1608
H 8.1299 -1.4080 -1.6051
H 5.6448 -1.5545 -1.5022
