31
 
P 1.0534 0.0747 -0.0395
O 0.5269 1.6213 0.4679
C 0.9442 1.9019 1.7749
C 0.4992 3.3199 2.1141
O 0.8808 -0.6404 -1.5754
C 1.3854 0.3246 -2.4874
C 1.0592 -0.0484 -3.9287
C 0.2659 -1.2508 0.9094
C -0.5704 -2.2077 0.3368
C -1.0216 -3.2918 1.0983
C -0.6394 -3.4352 2.4367
C 0.2006 -2.4923 3.0240
C 0.6576 -1.4102 2.2661
Ag 3.5134 0.0747 -0.0395
C 5.6634 0.0747 -0.0395
O 6.8815 0.0747 -0.0395
H 2.0530 1.8402 1.8717
H 0.4215 1.2433 2.4942
H 0.9822 4.0523 1.4331
H 0.7668 3.5664 3.1627
H -0.6044 3.4050 2.0013
H 2.4916 0.3677 -2.3926
H 0.9535 1.3477 -2.3319
H 1.4016 -1.0805 -4.1394
H 1.5854 0.6489 -4.6200
H -0.0315 0.0329 -4.1249
H -0.8500 -2.1355 -0.7005
H -1.6545 -4.0341 0.6390
H -0.9804 -4.2857 3.0131
H 0.5147 -2.6150 4.0573
H 1.3509 -0.7286 2.7480
