50
 
P 1.0923 0.0126 0.0363
C 0.1083 -0.0425 1.5963
C -1.0473 0.7138 1.8456
C -1.7388 0.5810 3.0640
C -1.2859 -0.2941 4.0556
C -0.1310 -1.0403 3.8402
C 0.5610 -0.9187 2.6244
C 0.6585 1.7048 -0.5463
C 1.0076 2.8764 0.1408
C 0.6021 4.1356 -0.3417
C -0.1423 4.2469 -1.5196
C -0.4723 3.0991 -2.2363
C -0.0771 1.8372 -1.7572
C 0.6904 -1.5934 -0.8226
C 1.1924 -1.8972 -2.1283
O 1.9992 -1.0129 -2.7755
C 2.4625 -1.1767 -4.0729
C 0.8346 -3.1233 -2.7551
C -0.0113 -4.0292 -2.1330
C -0.5267 -3.7345 -0.8798
C -0.1840 -2.5390 -0.2309
Ag 3.5523 0.0126 0.0363
N 5.6523 0.0126 0.0363
C 6.2958 1.0937 0.5520
C 7.6885 1.1847 0.4753
Cl 8.5216 2.5959 1.1011
C 8.4058 0.1507 -0.1316
C 7.7263 -0.9583 -0.6423
C 6.3318 -1.0105 -0.5471
H -1.4295 1.3929 1.1039
H -2.6362 1.1556 3.2431
H -1.8296 -0.3933 4.9908
H 0.2197 -1.7144 4.6184
H 1.4557 -1.5190 2.4976
H 1.5823 2.8215 1.0498
H 0.8595 5.0346 0.2006
H -0.4599 5.2230 -1.8774
H -1.0412 3.1960 -3.1585
H -0.3616 0.9687 -2.3408
H 3.1163 -0.3280 -4.3495
H 1.6107 -1.2175 -4.7910
H 3.0551 -2.1142 -4.1584
H 1.1974 -3.3972 -3.7390
H -0.2744 -4.9579 -2.6320
H -1.2017 -4.4415 -0.4139
H -0.6329 -2.3704 0.7315
H 5.7180 1.8926 0.9984
H 9.4836 0.2107 -0.2161
H 8.2737 -1.7581 -1.1238
H 5.7880 -1.8460 -0.9673
