43
 
P 0.9174 -0.0130 -0.0548
C -0.0026 1.3950 -0.7352
C 0.4256 -1.3593 -1.1654
C 0.4271 0.0202 1.6903
Ag 3.3774 -0.0130 -0.0548
C 5.5274 -0.0130 -0.0548
N 6.2323 -1.0741 -0.1924
C 5.6973 -2.4238 -0.2671
C 4.9256 -2.7562 1.0146
C 4.8009 -2.5920 -1.4981
C 7.6446 -0.7568 -0.1696
C 7.6707 0.7729 -0.3023
N 6.3285 1.1423 0.0633
C 5.8977 2.4845 0.4200
C 4.8341 2.9932 -0.5471
C 5.3656 2.5095 1.8600
H -1.0977 1.2959 -0.6874
H 0.3372 1.5320 -1.7879
H 0.3373 2.3051 -0.1886
H -0.6859 -1.4136 -1.1717
H 0.8071 -2.3159 -0.7502
H 0.8021 -1.2060 -2.1932
H -0.6843 -0.0089 1.7375
H 0.8038 0.9207 2.2088
H 0.8094 -0.8996 2.1809
H 6.5412 -3.1457 -0.3556
H 4.0729 -2.0557 1.1513
H 5.6011 -2.6721 1.8927
H 4.5354 -3.7949 0.9689
H 3.9288 -1.9050 -1.4498
H 4.4287 -3.6381 -1.5521
H 5.3784 -2.3790 -2.4221
H 8.2315 -1.2345 -0.9828
H 8.0359 -1.0682 0.8247
H 7.7914 1.0534 -1.3742
H 8.4732 1.2328 0.3109
H 6.7736 3.1717 0.3753
H 3.9400 2.3363 -0.5156
H 5.2414 3.0142 -1.5785
H 4.5305 4.0240 -0.2623
H 4.4758 1.8523 1.9646
H 5.0773 3.5460 2.1424
H 6.1494 2.1698 2.5712
