72
 
P 0.9581 0.0634 -0.0650
C 0.2671 -0.7273 1.4475
C -1.0948 -0.7344 1.7825
C -1.5263 -1.2969 2.9989
C -0.6149 -1.8850 3.8811
C 0.7344 -1.9408 3.5413
C 1.1757 -1.3647 2.3376
C 0.3486 1.6906 0.3775
C 0.8254 2.4191 1.4611
C 0.2523 3.6619 1.7634
C -0.7969 4.1735 0.9864
C -1.2598 3.4589 -0.1177
C -0.6839 2.2259 -0.4277
C 0.4535 -0.7738 -1.6232
C 0.7759 -0.2335 -2.9087
C 1.5519 1.0382 -3.1053
C 0.3259 -0.8767 -4.0791
C -0.4593 -2.0219 -4.0019
C -0.7841 -2.5543 -2.7557
C -0.3261 -1.9440 -1.5774
Ag 3.4181 0.0634 -0.0650
P 5.8781 0.0634 -0.0650
C 6.5999 -1.2903 0.8948
C 6.3283 -2.6024 0.4628
C 6.6682 -3.6995 1.2599
C 7.2766 -3.4986 2.4994
C 7.5627 -2.2033 2.9332
C 7.2288 -1.1035 2.1394
C 6.3275 -0.2499 -1.7925
C 5.3173 -0.3160 -2.7604
C 5.6538 -0.4445 -4.1222
C 6.9959 -0.5159 -4.5179
C 8.0074 -0.4446 -3.5581
C 7.6788 -0.3039 -2.2006
C 6.3145 1.5290 0.9286
C 5.3268 2.3886 1.4323
C 5.7105 3.5613 2.1050
C 7.0622 3.8693 2.2744
C 8.0244 3.0028 1.7570
O 9.2091 3.2643 1.8846
N 7.6345 1.8630 1.0912
H -1.8183 -0.2884 1.1213
H -2.5724 -1.2708 3.2688
H -0.9553 -2.3016 4.8254
H 1.4333 -2.4213 4.2225
H 2.2357 -1.4211 2.1137
H 1.6315 2.0222 2.0590
H 0.6159 4.2259 2.6077
H -1.2507 5.1237 1.2372
H -2.0685 3.8550 -0.7251
H -1.0673 1.6825 -1.2870
H 1.7288 1.5747 -2.1591
H 0.9796 1.7220 -3.7703
H 2.5248 0.8176 -3.5892
H 0.5568 -0.4713 -5.0607
H -0.8250 -2.4879 -4.9118
H -1.4040 -3.4399 -2.7068
H -0.6045 -2.3794 -0.6304
H 5.8120 -2.7808 -0.4737
H 6.4302 -4.7041 0.9323
H 7.5092 -4.3445 3.1330
H 8.0128 -2.0457 3.9040
H 7.4155 -0.1266 2.5480
H 4.2763 -0.2406 -2.4403
H 4.8804 -0.4782 -4.8788
H 7.2553 -0.6160 -5.5681
H 9.0456 -0.4835 -3.8732
H 8.4838 -0.2182 -1.4821
H 4.2754 2.1661 1.2839
H 4.9641 4.2449 2.4894
H 7.3584 4.7775 2.7923
H 8.3762 1.2446 0.6904
