58
 
P 1.0710 -0.0003 0.0704
C 0.7766 1.5011 -0.9457
C -0.5083 1.8177 -1.4662
C -0.7093 2.9528 -2.2702
C 0.3551 3.8062 -2.5478
C 1.6366 3.5022 -2.0561
C 1.8636 2.3321 -1.2770
C 0.6669 -1.6774 -0.5645
C 1.3621 -2.8360 -0.1614
C 1.0327 -4.0934 -0.7033
C 0.0117 -4.2115 -1.6502
C -0.6890 -3.0774 -2.0529
C -0.3644 -1.8232 -1.5188
C 0.1611 0.1025 1.6803
C 0.5422 -1.0995 2.6000
C 2.0360 -1.0834 3.0349
C 2.3613 0.2116 3.7864
C 2.0383 1.4158 2.8941
C 0.5494 1.3933 2.4641
Ag 3.5310 -0.0003 0.0704
C 5.6810 -0.0003 0.0704
N 6.3817 -0.9379 0.5808
C 5.8296 -2.0646 1.2900
C 7.7968 -0.6816 0.4186
C 7.8337 0.4864 -0.5798
N 6.4890 0.9919 -0.5138
C 6.0530 2.2747 -1.0078
H -1.3673 1.1888 -1.2821
H -1.6923 3.1783 -2.6810
H 0.1798 4.6939 -3.1570
H 2.4418 4.1835 -2.3027
H 2.8725 2.0316 -0.9171
H 2.1614 -2.7758 0.5613
H 1.5698 -4.9830 -0.3977
H -0.2385 -5.1786 -2.0757
H -1.4834 -3.1716 -2.7854
H -0.9322 -0.9739 -1.8619
H -0.9277 0.0979 1.4766
H 0.3059 -2.0595 2.1058
H -0.0838 -1.0637 3.5189
H 2.7203 -1.1599 2.1490
H 2.2395 -1.9466 3.7099
H 3.4378 0.2230 4.0739
H 1.7659 0.2694 4.7266
H 2.6961 1.3976 1.9996
H 2.2617 2.3492 3.4561
H 0.3246 2.2960 1.8625
H -0.0620 1.4468 3.3944
H 4.7111 -2.0157 1.2873
H 6.2040 -2.0559 2.3374
H 6.1691 -3.0049 0.8049
H 8.3714 -1.5500 0.0321
H 8.1926 -0.3637 1.4091
H 7.9724 0.0978 -1.6154
H 8.6239 1.2260 -0.3347
H 6.9170 2.8325 -1.4325
H 5.6505 2.8692 -0.1593
H 5.2733 2.1536 -1.7841
