83
 
P 0.9964 -0.0258 0.0965
C 0.0410 -1.7116 0.3271
C 0.6235 -2.4617 -0.8280
C 2.1261 -2.6620 -0.5001
C 2.3636 -3.6844 0.5583
C 1.6369 -3.2467 1.8473
C 0.1925 -2.7941 1.5361
C 0.2909 0.9934 1.5522
C 0.5681 0.4179 2.9518
C 2.0342 0.4874 3.2366
C 2.3912 1.9689 3.2652
C 2.2297 2.5863 1.8255
C 0.7607 2.5065 1.5562
C 1.0015 0.8612 -1.7748
C 0.3821 2.1631 -2.2534
C -0.6449 3.0626 -1.5980
C 0.7115 2.7665 -3.5236
C 1.5671 2.1839 -4.4186
C 2.0749 0.9433 -4.1003
C 1.8071 0.3080 -2.8406
Ag 3.4564 -0.0258 0.0965
C 5.6064 -0.0258 0.0965
N 6.4622 0.7667 0.8104
C 6.1222 1.8785 1.6601
C 4.9544 1.4387 2.3650
C 7.1577 2.1534 2.7681
C 5.8083 3.1668 0.8288
C 7.7193 0.4309 0.4813
C 7.6646 -0.5800 -0.4169
N 6.3686 -0.8371 -0.7040
C 5.9093 -1.9286 -1.5677
C 5.8055 -3.2108 -0.7088
C 4.6049 -1.5053 -2.1916
C 6.8554 -2.1963 -2.7318
H -1.0511 -1.5386 0.2346
H 0.3885 -1.8317 -1.7058
H 0.1891 -3.4543 -1.0550
H 2.6226 -1.8317 0.0022
H 2.6109 -2.8979 -1.4341
H 3.4387 -3.7615 0.7848
H 2.0554 -4.6375 0.0971
H 2.1187 -2.3730 2.3278
H 1.7152 -4.0829 2.5858
H -0.3155 -2.5490 2.4897
H -0.3157 -3.7407 1.2128
H -0.8093 1.0204 1.4327
H 0.2061 -0.6020 3.0826
H 0.0673 1.0411 3.7354
H 2.6256 -0.0742 2.4563
H 2.2526 0.0386 4.2306
H 3.2669 1.9279 3.8940
H 1.8642 2.6291 3.9680
H 2.6668 2.0870 0.9284
H 2.6221 3.6271 1.7670
H 0.5854 3.0806 0.6438
H 0.2573 3.0892 2.3640
H -0.9447 2.7229 -0.6176
H -1.5903 3.0608 -2.1989
H -0.3272 4.1431 -1.6144
H 0.3136 3.7384 -3.8500
H 1.8125 2.6921 -5.3645
H 2.7131 0.4965 -4.8585
H 2.2900 -0.6285 -2.7280
H 5.0996 0.5413 3.0004
H 4.2112 1.1278 1.6637
H 4.7529 2.3864 2.8657
H 7.3038 1.2204 3.3611
H 6.7756 2.9335 3.4693
H 8.1095 2.5099 2.3528
H 5.0212 2.9989 0.0580
H 6.7226 3.5537 0.3391
H 5.4264 3.9847 1.4871
H 8.6175 0.8957 0.8632
H 8.5280 -1.0816 -0.8261
H 5.2604 -2.9934 0.2217
H 6.8069 -3.5538 -0.3655
H 5.3297 -4.0482 -1.2659
H 3.9779 -1.3350 -1.3863
H 4.1494 -2.2953 -2.8118
H 4.6905 -0.5486 -2.7458
H 7.8495 -2.5130 -2.3674
H 6.9484 -1.2736 -3.3404
H 6.4447 -3.0172 -3.3592
