45
 
P 1.0386 0.0641 -0.0664
C 0.1224 1.3686 -0.9327
C 0.5452 -1.4210 -0.9821
C 0.5448 0.3321 1.6577
Ag 3.4986 0.0641 -0.0664
P 5.9586 0.0641 -0.0664
C 6.7963 -0.7304 1.4181
C 6.3800 -0.0925 2.7712
C 6.3778 -2.2164 1.5259
C 6.4450 -1.0634 -1.4775
C 5.9788 -0.5594 -2.8575
C 7.9762 -1.2239 -1.5385
C 6.4345 1.8767 -0.0538
C 7.9631 2.0777 -0.1049
C 5.8485 2.6577 -1.2547
H -0.9730 1.2798 -0.8737
H 0.4639 1.3610 -1.9938
H 0.4640 2.3436 -0.5141
H -0.5664 -1.4744 -0.9803
H 0.9257 -2.3118 -0.4394
H 0.9213 -1.4110 -2.0214
H -0.5667 0.3097 1.7065
H 0.9212 1.2938 2.0516
H 0.9250 -0.5139 2.2683
H 7.8942 -0.6655 1.3267
H 5.2809 -0.1592 2.9518
H 6.6938 0.9638 2.8638
H 6.8608 -0.6483 3.6123
H 5.2836 -2.3225 1.7171
H 6.9124 -2.7097 2.3664
H 6.6273 -2.7926 0.6202
H 5.9836 -2.0569 -1.3275
H 6.4665 0.3916 -3.1452
H 4.8780 -0.4472 -2.9074
H 6.2826 -1.2891 -3.6423
H 8.4805 -0.2577 -1.7175
H 8.2705 -1.8943 -2.3715
H 8.3796 -1.6613 -0.6077
H 6.0506 2.3305 0.8791
H 8.3924 1.7683 -1.0796
H 8.4766 1.5377 0.7123
H 8.2089 3.1578 -0.0085
H 6.2316 2.2921 -2.2273
H 6.1631 3.7254 -1.2101
H 4.7423 2.6272 -1.2726
