26
 
P 1.0176 0.0981 0.0087
C 0.0625 -0.5670 -1.3842
C 0.5370 -1.0303 1.3446
C 0.5391 1.8467 -0.0278
Ag 3.4776 0.0981 0.0087
N 5.5776 0.0981 0.0087
C 5.5340 -0.2365 1.4434
N 6.2577 -0.8464 -0.7183
C 7.5014 -0.5309 -0.8136
C 7.7252 0.7224 -0.2621
C 6.4762 1.1897 0.1176
H -1.0298 -0.5076 -1.2595
H 0.3862 -1.6229 -1.5331
H 0.3859 -0.0190 -2.2991
H -0.5739 -1.0418 1.4071
H 0.9264 -0.6309 2.3043
H 0.9144 -2.0550 1.1706
H -0.5718 1.9036 0.0029
H 0.9165 2.3559 -0.9339
H 0.9298 2.3408 0.8861
H 4.8522 -1.0993 1.5952
H 5.0167 0.5918 1.9999
H 6.5066 -0.4463 1.9479
H 8.2495 -1.1602 -1.2766
H 8.6743 1.2304 -0.1338
H 6.3019 2.1279 0.6368
