59
 
P 1.0920 0.0374 0.0114
C 0.3297 1.6665 -0.1038
C -0.8319 1.9817 -0.8167
C -1.2548 3.3181 -0.8932
C -0.5259 4.3351 -0.2616
C 0.6249 4.0226 0.4586
C 1.0498 2.6975 0.5345
C 0.6049 -0.5790 -1.6402
C 0.9542 0.0740 -2.8215
C 0.4401 -0.3651 -4.0514
C -0.4044 -1.4781 -4.1205
C -0.7107 -2.1866 -2.9601
C -0.2117 -1.7432 -1.7236
C 0.6332 -0.7606 1.5739
C 1.0817 -2.0772 1.8814
C 2.0559 -2.8545 1.0313
C 0.5873 -2.7251 3.0257
C -0.3303 -2.0938 3.8619
C -0.7510 -0.7957 3.5800
C -0.2729 -0.1298 2.4464
Ag 3.5520 0.0374 0.0114
P 6.0120 0.0374 0.0114
N 6.8749 1.5676 0.2316
C 8.3179 1.4643 0.2733
C 8.7342 0.0305 -0.0008
C 10.2587 -0.0366 -0.0074
C 8.1540 -0.8659 1.1776
N 6.6883 -0.7717 1.3921
N 6.6700 -0.1535 -1.5870
C 8.1379 -0.3688 -1.4238
H -1.3955 1.2108 -1.3196
H -2.1430 3.5712 -1.4526
H -0.8468 5.3667 -0.3322
H 1.1955 4.8054 0.9475
H 1.9608 2.4791 1.0838
H 1.5945 0.9386 -2.7826
H 0.6827 0.1722 -4.9550
H -0.8185 -1.7904 -5.0742
H -1.3521 -3.0634 -3.0257
H -0.4926 -2.3066 -0.8387
H 2.4181 -2.3004 0.1463
H 1.5742 -3.7928 0.6832
H 2.9465 -3.1214 1.6407
H 0.9015 -3.7359 3.2606
H -0.7189 -2.6171 4.7270
H -1.4682 -0.3141 4.2321
H -0.6474 0.8627 2.2409
H 6.5148 2.0053 1.1119
H 8.6889 1.8111 1.2651
H 8.7210 2.1553 -0.4980
H 10.6515 0.3100 0.9746
H 10.6581 0.6383 -0.7955
H 10.5998 -1.0719 -0.1960
H 8.6467 -0.5874 2.1364
H 8.4135 -1.9272 0.9817
H 6.4244 -0.2687 2.2688
H 6.4187 0.6522 -2.2024
H 8.6490 0.2181 -2.2180
H 8.3681 -1.4388 -1.6127
