47
 
C 0.9010 -0.6430 -0.0020
N -0.3355 -1.1658 -0.0027
C -0.6624 -2.5833 0.0015
C 0.6457 -3.4298 0.0147
C -1.5664 -2.8830 1.2130
C -1.2027 -0.1285 -0.0020
C -0.4805 1.0348 0.0240
N 0.8281 0.7206 0.0288
C 1.8854 1.7257 0.0274
C 2.7236 1.6790 1.3067
C 2.6862 1.5268 -1.2388
Ag 2.6584 -1.8814 -0.0135
N 4.3750 -3.0911 -0.0247
C 5.6908 -2.6400 -0.1801
N 6.0239 -1.2467 -0.3014
C 5.1777 -0.2637 0.2880
C 7.2149 -0.7327 -0.9856
C 6.7390 -3.5822 -0.2614
C 6.4730 -4.9383 -0.2096
C 5.1626 -5.3717 -0.0854
C 4.1270 -4.4342 0.0055
H -1.2475 -2.8103 -0.9186
H 1.2708 -3.2150 0.8935
H 1.2652 -3.2265 -0.8717
H 0.3616 -4.5008 0.0137
H -1.0439 -2.6458 2.1630
H -1.8871 -3.9437 1.2162
H -2.4940 -2.2645 1.1756
H -2.2825 -0.1986 -0.0096
H -0.8775 2.0435 0.0376
H 1.4491 2.7512 -0.0087
H 3.0921 0.6739 1.5095
H 2.1149 1.9569 2.1904
H 3.5751 2.3917 1.2283
H 3.0532 0.4812 -1.2680
H 3.5098 2.2677 -1.2947
H 2.0079 1.6635 -2.1068
H 4.2710 -0.7369 0.6677
H 4.9676 0.5145 -0.4559
H 5.7320 0.2158 1.1232
H 7.8302 -1.5015 -1.4899
H 7.8532 -0.1538 -0.2847
H 6.8964 -0.0389 -1.7972
H 7.7736 -3.2848 -0.3588
H 7.2897 -5.6483 -0.2786
H 4.9555 -6.4331 -0.0693
H 3.1109 -4.7888 0.0824
