57
 
P 1.2750 0.0000 0.0000
N 0.4551 1.5344 -0.2393
C 1.0655 2.5098 0.7269
C 2.6243 2.6456 0.5462
C 0.4770 3.9193 0.5792
C -0.9987 1.4079 -0.2390
C -1.4210 -0.0349 0.0158
C -2.9548 -0.0785 0.0114
C -0.8437 -0.9647 -1.1415
N 0.6502 -0.9489 -1.3527
C 1.2151 -2.3561 -1.2820
C 0.6655 -3.3434 -2.3130
C 2.7588 -2.4565 -1.3608
N 0.6524 -0.3705 1.6147
C 1.2252 -1.6712 2.1217
C 2.7772 -1.7154 2.1892
C 0.6861 -2.1133 3.4868
C -0.8463 -0.4595 1.4387
Ag 3.7350 0.0003 -0.0005
N 5.8350 0.0006 -0.0009
C 6.6657 1.0435 0.1497
O 7.9216 0.6516 0.0993
C 7.9216 -0.6527 -0.0871
C 6.6136 -1.0774 -0.1541
H 0.8644 2.1813 1.7730
H 2.8967 2.9408 -0.4819
H 3.2246 1.7452 0.7269
H 3.0189 3.4009 1.2628
H 0.6768 4.3109 -0.4382
H 0.9391 4.5930 1.3337
H -0.6092 3.9526 0.7765
H -1.3637 1.7540 -1.2324
H -1.4649 2.0432 0.5364
H -3.3415 0.2564 -0.9772
H -3.3587 0.6101 0.7862
H -3.3179 -1.1036 0.2156
H -1.3081 -0.6796 -2.1098
H -1.2174 -1.9783 -0.8909
H 0.8925 -2.8299 -0.3713
H 0.9844 -3.0685 -3.3335
H -0.4329 -3.4477 -2.2579
H 1.0718 -4.3562 -2.0665
H 3.1492 -2.1562 -2.3482
H 3.0842 -3.4937 -1.1149
H 3.2928 -1.8613 -0.6520
H 0.8838 -2.4873 1.5067
H 3.1536 -1.0649 3.0041
H 3.3204 -1.4561 1.2657
H 3.0980 -2.7622 2.3849
H 1.0068 -1.4226 4.2870
H 1.0849 -3.1337 3.7024
H -0.4164 -2.2165 3.4914
H -1.3030 0.1915 2.2166
H -1.2252 -1.4865 1.6097
H 6.3442 2.0654 0.2975
H 8.8051 -1.2717 -0.1697
H 6.2527 -2.0873 -0.2984
