59
 
C 0.9010 -0.6430 -0.0020
N -0.3826 -1.1851 -0.0550
C -0.9036 -2.6033 -0.0477
C -0.0386 -3.7466 0.0191
C 1.3635 -3.6826 0.1824
C -0.4615 -5.0554 0.0177
C -1.7839 -5.3559 0.0062
C -2.1578 -6.7968 0.0459
C -2.7141 -4.3194 -0.0059
C -2.3126 -2.9581 -0.0346
C -3.4496 -1.9781 -0.0064
C -1.1561 -0.0839 -0.0252
C -0.4228 1.0391 0.0454
N 0.8965 0.7740 0.0372
C 2.0056 1.8296 -0.0024
C 1.8900 3.2723 -0.0662
C 0.6564 4.1026 -0.1675
C 3.0646 4.0940 -0.0482
C 4.3503 3.5539 0.0122
C 5.6124 4.3347 0.0539
C 4.4851 2.2181 0.0368
C 3.3627 1.4430 0.0236
C 3.6459 0.1563 0.0869
Ag 2.6584 -1.8814 -0.0135
N 4.3750 -3.0911 -0.0247
C 4.3835 -4.2889 -0.7024
C 5.4810 -5.1523 -0.6629
C 6.5775 -4.8277 0.1192
F 7.6254 -5.6854 0.2126
C 6.5836 -3.6213 0.8106
C 5.4879 -2.7477 0.7033
H 1.3674 -2.8695 0.8920
H 1.7718 -3.8780 -0.8312
H 1.8200 -4.3588 0.9327
H 0.2717 -5.8614 0.0611
H -1.2529 -7.4510 0.0514
H -2.7424 -7.0374 -0.8595
H -2.7177 -6.9952 0.9792
H -3.7630 -4.5810 0.0180
H -4.4483 -2.4523 0.0359
H -3.4398 -1.3748 -0.9382
H -3.3817 -1.3766 0.9282
H -2.2060 0.0327 -0.0336
H -0.9650 1.9322 0.0934
H -0.2969 3.6511 -0.2840
H 0.7348 4.7052 -1.0918
H 0.5975 4.7392 0.7366
H 2.9797 5.1679 -0.0836
H 5.4027 5.4143 0.0213
H 6.2497 4.0323 -0.8082
H 6.1530 4.0739 0.9936
H 5.4805 1.7617 0.0735
H 4.5662 -0.3010 0.3644
H 3.3454 -0.2657 -0.8983
H 3.0805 -0.0410 1.0573
H 3.5785 -4.5967 -1.3389
H 5.4711 -6.0771 -1.2281
H 7.4264 -3.3766 1.4448
H 5.5196 -1.8610 1.3097
