47
 
P 0.9061 0.0231 0.0253
C 0.2008 -0.2752 1.7488
C -1.3074 -0.2493 2.0502
C 0.7668 -1.5901 2.3105
C 0.4072 1.7453 -0.4937
C -1.1212 1.9908 -0.6055
C 1.0136 2.8107 0.3988
C 0.4302 -1.4378 -1.0602
C -1.0942 -1.5738 -1.2682
C 1.0226 -1.3307 -2.4825
Ag 3.3661 0.0231 0.0253
C 5.5161 0.0231 0.0253
N 6.3796 0.0379 -1.0365
C 6.1446 0.0626 -2.4768
C 7.6233 0.0253 -0.5054
Cl 9.1321 0.0343 -1.4130
C 7.5253 0.0046 0.8575
Cl 8.8828 -0.0177 1.9792
N 6.2187 0.0046 1.1893
C 5.6863 -0.0114 2.5469
H 0.6467 0.5318 2.3688
H -1.8781 -1.0502 1.5693
H -1.7742 0.7193 1.8773
H -1.4566 -0.4132 3.1389
H 0.3080 -2.4686 1.8105
H 0.5452 -1.6652 3.3998
H 1.8712 -1.6359 2.1958
H 0.8063 1.8811 -1.5212
H -1.6356 2.0143 0.3589
H -1.6373 1.2791 -1.2680
H -1.3218 2.9963 -1.0291
H 0.6426 2.7025 1.4381
H 0.7153 3.8151 0.0228
H 2.1183 2.7296 0.3663
H 0.8055 -2.3652 -0.5878
H -1.5214 -0.7336 -1.8480
H -1.6440 -1.6800 -0.3365
H -1.3279 -2.4883 -1.8520
H 0.6542 -0.4243 -3.0168
H 0.6976 -2.2078 -3.0927
H 2.1281 -1.3252 -2.4740
H 5.0680 0.0712 -2.7232
H 6.6298 -0.8265 -2.9407
H 6.6357 0.9642 -2.9099
H 6.5113 -0.0248 3.2928
H 5.0715 -0.9206 2.7003
H 5.0828 0.9011 2.7243
