36
 
C 0.9010 -0.6430 -0.0020
N -0.3531 -1.1127 0.0084
C -0.7356 -2.5155 0.0201
C -1.1581 -0.0306 0.0083
C -0.3567 1.0996 -0.0011
N 0.9304 0.6976 -0.0060
C 2.1304 1.5222 -0.0154
Ag 2.6584 -1.8814 -0.0135
N 4.3750 -3.0911 -0.0247
C 5.5694 -2.4605 -0.0338
C 5.5684 -0.9680 -0.0400
C 6.7541 -3.2090 -0.0389
C 6.6800 -4.6118 -0.0335
C 7.9254 -5.4500 -0.0371
C 5.4223 -5.2336 -0.0252
C 4.2622 -4.4445 -0.0220
C 2.8970 -5.0579 -0.0151
H 0.1808 -3.1550 0.0203
H -1.3450 -2.7432 -0.8796
H -1.3339 -2.7296 0.9310
H -2.2399 -0.0570 0.0153
H -0.6876 2.1302 -0.0038
H 1.8633 2.6002 -0.0184
H 2.7321 1.2944 -0.9206
H 2.7398 1.3018 0.8865
H 4.5110 -0.5882 -0.0378
H 6.0920 -0.6041 -0.9490
H 6.0990 -0.5961 0.8612
H 7.7144 -2.7079 -0.0468
H 8.8408 -4.8208 -0.0444
H 7.9389 -6.0983 -0.9387
H 7.9487 -6.0909 0.8696
H 5.3509 -6.3152 -0.0215
H 2.9528 -6.1684 -0.0125
H 2.3383 -4.7293 -0.9157
H 2.3426 -4.7238 0.8861
