21
 
C -0.3280 -1.0820 0.0030
N -1.1624 -0.0307 -0.1017
H -2.2009 -0.0567 -0.2010
C -0.3691 1.0565 -0.0678
Cl -0.9380 2.7112 -0.1789
C 0.9393 0.6422 0.0662
Cl 2.3634 1.6593 0.1771
N 0.9587 -0.7010 0.1040
Ag -0.9444 -3.1417 0.0167
N -1.5465 -5.1535 0.0300
C -0.5843 -6.1123 0.0739
F 0.7209 -5.7484 0.1056
C -0.9397 -7.4634 0.0823
C -2.2919 -7.8118 0.0513
F -2.6570 -9.1176 0.0622
C -3.2663 -6.8104 0.0091
C -2.8681 -5.4694 -0.0041
F -3.7942 -4.4811 -0.0464
H 1.7910 -1.3226 0.2065
H -0.1761 -8.2302 0.1131
H -4.3165 -7.0713 -0.0132
