49
 
C 2.3270 0.0340 0.0000
N 1.5675 1.1403 -0.0073
C 2.1320 2.5011 0.0126
C 3.6985 2.4513 0.0043
C 1.6283 3.3281 -1.1788
C 0.2894 0.6697 -0.0021
C 0.3149 -0.7102 -0.0026
C -0.8597 -1.4777 0.0114
C -2.0859 -0.8029 0.0137
C -2.1230 0.6047 0.0128
C -0.9309 1.3589 0.0123
N 1.5960 -1.1322 0.0034
C 2.0492 -2.5601 0.0463
C 2.7365 -2.8490 1.3596
C 2.0890 -2.4149 2.5208
C 2.7225 -2.4839 3.7550
C 3.9970 -3.0399 3.8587
C 4.6184 -3.5795 2.7273
C 3.9951 -3.4855 1.4705
Ag 4.4769 0.0580 0.0014
N 6.5767 0.0815 0.0028
C 7.1869 0.0330 1.2166
F 6.4311 -0.0600 2.3380
C 8.5784 0.1092 1.3104
C 9.3335 0.2221 0.1424
C 8.6908 0.2570 -1.0981
C 7.2927 0.1940 -1.1490
H 1.8010 3.0053 0.9457
H 4.0942 1.9476 -0.8966
H 4.0984 1.9175 0.8842
H 4.1072 3.4804 0.0242
H 1.9165 2.8601 -2.1420
H 2.0471 4.3554 -1.1281
H 0.5278 3.4385 -1.1619
H -0.8579 -2.5587 0.0221
H -3.0084 -1.3719 0.0205
H -3.0821 1.1053 0.0166
H -0.9879 2.4336 0.0258
H 2.6880 -2.8173 -0.8261
H 1.1774 -3.2449 -0.0025
H 1.1042 -1.9734 2.4565
H 2.2241 -2.0791 4.6234
H 4.4946 -3.0548 4.8194
H 5.5937 -4.0425 2.8298
H 4.5054 -3.8943 0.6047
H 9.0657 0.0888 2.2771
H 10.4129 0.2859 0.2001
H 9.2717 0.3406 -2.0074
H 6.7826 0.2300 -2.1017
