52
 
C 2.3270 0.0340 0.0000
N 1.5400 1.1271 -0.0168
C 2.0301 2.5034 -0.0230
C 3.0542 2.7084 -1.1436
C 2.4099 2.5460 -2.5449
C 3.4172 2.8394 -3.6543
C 0.2743 0.6485 -0.0294
C 0.3096 -0.7285 -0.0193
C -0.8731 -1.4883 0.0019
C -2.0996 -0.8059 0.0021
C -2.1338 0.6018 -0.0207
C -0.9396 1.3477 -0.0357
N 1.5996 -1.1497 -0.0123
C 2.0369 -2.6002 0.0024
C 2.6328 -2.9929 1.3441
C 1.8956 -2.5941 2.4570
C 2.4182 -2.6983 3.7354
C 3.6628 -3.2872 3.9420
C 4.3613 -3.8372 2.8616
C 3.8597 -3.6867 1.5500
Ag 4.4769 0.0580 0.0014
N 6.5767 0.0815 0.0028
C 7.1753 -1.1383 -0.0857
C 8.5650 -1.2565 -0.0387
C 9.3377 -0.1088 0.1255
F 10.6877 -0.2099 0.2167
C 8.7136 1.1407 0.1995
C 7.3134 1.2215 0.1186
H 2.5584 2.6963 0.9332
H 1.1903 3.2255 -0.1104
H 3.9242 1.9973 -0.9201
H 3.4252 3.7543 -1.0754
H 1.5588 3.2592 -2.6607
H 2.0101 1.5180 -2.6811
H 3.7934 3.8815 -3.5670
H 2.9386 2.7269 -4.6523
H 4.2701 2.1343 -3.5855
H -0.8805 -2.5682 0.0279
H -3.0266 -1.3670 0.0217
H -3.0907 1.1086 -0.0209
H -0.9808 2.4268 -0.0445
H 2.7036 -2.8454 -0.8514
H 1.1510 -3.2604 -0.1178
H 0.9242 -2.1446 2.3200
H 1.8525 -2.2899 4.5573
H 4.0705 -3.3215 4.9442
H 5.3035 -4.3433 3.0551
H 4.4432 -4.0972 0.7310
H 6.5624 -2.0231 -0.1993
H 9.0351 -2.2295 -0.1153
H 9.3130 2.0323 0.3290
H 6.8230 2.1820 0.1896
