32
 
C 0.9010 -0.6430 -0.0020
N -0.3505 -1.1223 -0.0111
C -0.7284 -2.5260 -0.0122
C -1.1642 -0.0497 -0.0228
C -0.3737 1.0838 -0.0448
N 0.9230 0.6994 -0.0332
C 2.0901 1.5388 -0.0566
C 3.3281 1.0608 0.4232
C 4.4301 1.9343 0.4741
C 4.3284 3.2377 -0.0322
C 3.1245 3.6840 -0.5754
C 2.0056 2.8514 -0.5629
Ag 2.6584 -1.8814 -0.0135
O 4.3342 -3.0623 -0.0245
C 4.3358 -4.3715 -0.0074
C 5.6486 -4.8013 -0.0253
C 6.4304 -3.6611 -0.0623
C 5.5564 -2.5943 -0.0551
H 0.1894 -3.1629 -0.0158
H -1.3315 -2.7453 -0.9193
H -1.3344 -2.7492 0.8907
H -2.2457 -0.0843 -0.0202
H -0.7270 2.1067 -0.0506
H 3.4249 0.0341 0.7785
H 5.3707 1.6081 0.8980
H 5.1836 3.9032 -0.0175
H 3.0529 4.6796 -0.9986
H 1.0801 3.2267 -0.9789
H 3.4507 -4.9923 0.0238
H 5.9980 -5.8249 -0.0142
H 7.5108 -3.6133 -0.0919
H 5.8142 -1.5437 -0.0817
