58
 
C 1.0240 -0.6530 -0.0550
N 1.0084 0.6579 -0.1551
C 2.1266 1.6359 -0.1763
C 3.4005 1.4287 -0.7981
C 3.7034 0.2157 -1.6297
C 4.4299 2.4268 -0.6887
C 4.2256 3.6271 0.0115
C 5.2538 4.7144 0.1772
C 3.0137 3.8434 0.6008
C 1.9975 2.8986 0.5274
C 0.8157 3.2866 1.3158
C -0.3721 1.0799 -0.0240
C -1.2064 -0.1406 -0.1821
N -0.2952 -1.1932 0.1851
C -0.6958 -2.5547 0.4915
C 0.1334 -3.6597 0.1663
C 1.3465 -3.5782 -0.6400
C -0.1662 -4.9479 0.5747
C -1.3139 -5.2170 1.2835
C -1.5974 -6.6187 1.7028
C -2.1923 -4.1811 1.5833
C -1.9153 -2.8552 1.2024
C -2.9444 -1.8363 1.6228
Ag 2.7802 -1.8697 -0.2955
O 4.4547 -3.0299 -0.5248
C 5.0385 -3.7829 0.3747
N 6.1184 -4.4030 -0.1490
C 6.1475 -4.0027 -1.4381
C 5.1066 -3.1300 -1.6531
H 2.8097 -0.3441 -1.9111
H 4.4820 -0.3845 -1.1487
H 4.1062 0.6219 -2.5941
H 5.3958 2.2858 -1.1580
H 6.2002 4.4737 -0.3385
H 5.4577 4.8684 1.2633
H 4.8499 5.6740 -0.2217
H 2.8647 4.7735 1.1503
H 0.8943 4.2227 1.8972
H 0.7498 2.4822 2.0747
H -0.0105 3.4522 0.5991
H -0.6903 1.8427 -0.7668
H -0.5741 1.3579 1.0232
H -1.4920 -0.2976 -1.2430
H -2.0961 0.0721 0.4185
H 1.2782 -2.7092 -1.3236
H 1.4020 -4.3742 -1.4063
H 2.1648 -3.7186 0.0952
H 0.5141 -5.7544 0.3200
H -0.7858 -7.3061 1.3758
H -2.5468 -6.9497 1.2388
H -1.6661 -6.6602 2.8078
H -3.0974 -4.4138 2.1295
H -3.7641 -2.2665 2.2321
H -3.4556 -1.4367 0.7214
H -2.4710 -1.0449 2.2439
H 4.7408 -3.8580 1.4110
H 6.8690 -4.3338 -2.1748
H 4.8274 -2.6522 -2.5834
