83
 
C -0.1384 -1.0268 0.4851
N -1.0449 0.0083 0.7005
C -2.5225 0.0458 0.8062
C -0.3010 1.1560 0.6747
Cl -0.8757 2.8179 0.8391
C 1.0079 0.8516 0.4380
Cl 2.3507 2.0061 0.3289
N 1.1147 -0.4780 0.2825
C 2.4012 -1.1183 -0.0326
Ag -0.4080 -3.3831 0.3238
C -0.7942 -5.7138 0.1015
N -1.6102 -6.2693 -0.7968
C -2.5392 -5.5652 -1.7780
C -3.1840 -6.1637 -2.9683
C -3.0961 -7.5962 -3.4545
C -1.6582 -8.0306 -3.7419
C -3.8524 -8.4304 -2.4536
C -4.0445 -5.3967 -3.7996
C -4.3942 -4.1056 -3.5089
C -3.8145 -3.4955 -2.4643
C -2.8834 -4.1551 -1.6651
C -2.2328 -3.1848 -0.8240
C -2.5851 -3.5602 0.7124
C -0.8312 -3.0087 -1.6847
C -1.5807 -7.7301 -0.4816
C -0.2587 -7.9874 0.1054
N -0.0336 -6.7391 0.8524
C 0.8668 -6.5502 2.0225
C 1.6552 -5.3575 2.2689
C 1.6383 -4.1319 1.4963
C 1.7786 -4.3820 -0.0309
C 0.4745 -3.4376 2.2902
C 2.2766 -5.0857 3.5018
C 2.0683 -5.8771 4.5623
C 1.4330 -7.0627 4.3755
C 0.9108 -7.4839 3.1205
C 0.3660 -8.8877 3.1522
C 1.5037 -9.8622 3.4947
C -0.7986 -8.9835 4.1084
H -3.0097 -0.9290 0.7712
H -2.9491 0.6275 -0.0524
H -2.8707 0.5297 1.7403
H 3.2183 -0.3910 -0.2102
H 2.3271 -1.7002 -0.9652
H 2.7942 -1.6836 0.8146
H -3.6695 -7.7783 -4.3995
H -0.9457 -7.7561 -2.9538
H -1.2874 -7.5160 -4.6491
H -1.6331 -9.1332 -3.8807
H -3.5311 -8.1547 -1.5131
H -3.6968 -9.5253 -2.5332
H -4.8916 -8.0789 -2.3246
H -4.4925 -5.8021 -4.6918
H -5.0921 -3.5388 -4.1051
H -4.0682 -2.4491 -2.3098
H -2.6348 -2.1620 -0.8648
H -2.3033 -4.4949 1.2054
H -3.6839 -3.6249 0.8657
H -2.1256 -2.8517 1.4156
H -0.3022 -3.9394 -1.6462
H -0.0499 -2.3551 -1.3311
H -0.8353 -2.7308 -2.7525
H -1.6147 -8.5591 -1.2298
H -2.3350 -7.9618 0.3328
H 0.4462 -8.0685 -0.7540
H -0.4341 -9.0254 0.4555
H 2.5097 -3.4811 1.6951
H 1.2435 -5.1718 -0.4917
H 2.7831 -4.7508 -0.2999
H 1.4444 -3.5256 -0.6110
H -0.4684 -4.0099 2.1948
H 0.3711 -2.4450 2.0410
H 0.6346 -3.2031 3.3537
H 2.7967 -4.1483 3.6877
H 2.4010 -5.5484 5.5349
H 1.3491 -7.6508 5.2679
H -0.0057 -9.2314 2.2475
H 2.0029 -9.5909 4.4450
H 2.2788 -9.8465 2.6934
H 1.1042 -10.8866 3.6119
H -0.3980 -8.7874 5.0951
H -1.2325 -10.0010 4.1807
H -1.5671 -8.2220 3.8296
