64
 
C 1.0240 -0.6530 -0.0550
N 1.0406 0.6563 -0.1240
C 2.1741 1.6061 -0.2301
C 3.4159 1.3466 -0.9246
C 3.7313 0.1087 -1.7190
C 4.4469 2.3352 -0.9584
C 4.2943 3.5806 -0.3456
C 5.3276 4.6761 -0.3665
C 3.1258 3.8510 0.3090
C 2.0855 2.9239 0.3782
C 0.9224 3.4398 1.1559
C -0.3301 1.1140 -0.0089
C -1.2003 -0.0982 -0.1876
N -0.2986 -1.1831 0.0821
C -0.6716 -2.5426 0.3909
C 0.1493 -3.6332 -0.0232
C 1.3136 -3.5483 -0.9823
C -0.1333 -4.9312 0.4207
C -1.2401 -5.2071 1.2126
C -1.5336 -6.6086 1.6518
C -2.0941 -4.1761 1.5749
C -1.8423 -2.8505 1.1886
C -2.8525 -1.8442 1.6970
Ag 2.7802 -1.8697 -0.2955
N 4.4956 -3.0582 -0.5304
C 4.9210 -3.3989 -1.7826
C 5.9902 -4.3003 -1.9564
C 6.4472 -4.7247 -3.3257
C 6.6107 -4.8349 -0.8212
C 6.1708 -4.4641 0.4498
C 5.1047 -3.5655 0.5768
H 2.8932 -0.6042 -1.8673
H 4.6038 -0.3934 -1.2484
H 4.0351 0.4244 -2.7415
H 5.3734 2.1472 -1.4903
H 6.2401 4.3934 -0.9235
H 5.6036 4.9441 0.6787
H 4.8867 5.5864 -0.8360
H 3.0310 4.8284 0.7758
H 1.0720 4.4495 1.5898
H 0.7694 2.7647 2.0189
H 0.0730 3.5608 0.4608
H -0.6200 1.8696 -0.7703
H -0.5077 1.4397 1.0319
H -1.5350 -0.2181 -1.2396
H -2.0618 0.0827 0.4599
H 1.4990 -2.5860 -1.5463
H 1.1707 -4.2765 -1.7983
H 2.1978 -3.8862 -0.4072
H 0.5154 -5.7455 0.1224
H -0.7597 -7.3167 1.2872
H -2.5167 -6.9209 1.2423
H -1.5627 -6.6581 2.7605
H -2.9644 -4.4159 2.1782
H -3.6300 -2.2928 2.3521
H -3.4274 -1.4287 0.8430
H -2.3553 -1.0583 2.3047
H 4.4131 -2.9888 -2.6449
H 5.8782 -4.2046 -4.1242
H 6.2871 -5.8182 -3.4444
H 7.5285 -4.5094 -3.4665
H 7.4254 -5.5451 -0.9210
H 6.6395 -4.8908 1.3279
H 4.7340 -3.3089 1.5595
