53
 
C 2.3270 0.0340 0.0000
N 1.5702 1.1406 -0.0270
C 2.1363 2.4998 -0.0375
C 3.7039 2.4525 -0.0271
C 1.6398 3.2972 -1.2512
C 0.2924 0.6746 -0.0013
C 0.3181 -0.7068 0.0460
C -0.8621 -1.4660 0.0599
C -2.0879 -0.7828 0.0299
C -2.1202 0.6251 0.0048
C -0.9251 1.3720 -0.0053
N 1.6041 -1.1281 0.0790
C 2.1003 -2.5412 0.1958
C 2.8199 -3.0492 -1.0535
C 3.0881 -2.1457 -2.0814
C 3.4851 -2.5627 -3.3306
C 3.7321 -3.9039 -3.5769
C 3.6283 -4.8315 -2.5335
C 3.1512 -4.4187 -1.2683
Ag 4.4769 0.0580 0.0014
N 6.5767 0.0815 0.0028
C 7.2449 -0.7369 0.8760
O 6.5887 -1.5819 1.7064
C 5.2269 -1.7632 1.7177
C 8.6384 -0.6691 0.9676
C 9.3417 0.1943 0.1312
C 8.6483 0.9903 -0.7805
C 7.2496 0.9411 -0.8105
H 1.7929 3.0236 0.8820
H 4.1098 1.9321 -0.9170
H 4.0971 1.9414 0.8644
H 4.1021 3.4878 -0.0163
H 1.9605 2.8165 -2.1971
H 2.0370 4.3335 -1.2081
H 0.5369 3.3830 -1.2616
H -0.8629 -2.5465 0.0839
H -3.0159 -1.3431 0.0320
H -3.0776 1.1319 -0.0076
H -0.9786 2.4483 -0.0165
H 1.2200 -3.2088 0.3071
H 2.6917 -2.6878 1.1226
H 2.9601 -1.0989 -1.9642
H 3.5746 -1.8161 -4.1034
H 4.0181 -4.2008 -4.5766
H 3.8833 -5.8671 -2.7337
H 3.0132 -5.1765 -0.5007
H 4.9612 -2.5376 2.4636
H 4.9029 -2.1099 0.7146
H 4.7106 -0.8218 2.0041
H 9.1707 -1.2786 1.6881
H 10.4218 0.2445 0.1919
H 9.1923 1.6451 -1.4485
H 6.7029 1.5589 -1.5094
