70
 
P 0.9018 0.0181 -0.0060
C 0.1236 -1.7966 -0.0158
C -1.4163 -1.9245 -0.0347
C 0.6306 -2.6709 -1.2003
C 0.6028 -2.6169 1.2075
C 0.4163 0.8659 1.7021
C 0.9789 0.1899 2.9679
C 0.9415 2.3224 1.7899
C -1.1150 0.9950 1.9379
C 0.3706 0.8876 -1.6554
C -1.1692 0.9790 -1.7863
C 0.8715 2.3479 -1.7031
C 0.8871 0.2446 -2.9559
Ag 3.3618 0.0181 -0.0060
C 5.5118 0.0181 -0.0060
N 6.2180 -0.3268 -1.0187
C 5.6835 -0.8483 -2.2628
C 4.8724 -2.1108 -1.9905
C 4.7905 0.1867 -2.9309
C 7.6308 -0.2068 -0.7303
C 7.6636 0.5827 0.5832
N 6.3195 0.4384 1.0739
C 5.9106 0.7092 2.4405
C 6.2065 2.1585 2.8293
C 4.4341 0.4164 2.6370
H -1.8758 -1.6575 -0.9847
H -1.9172 -1.4015 0.7685
H -1.7156 -2.9862 0.0991
H 0.2007 -2.4119 -2.1661
H 0.2667 -3.7209 -1.0938
H 1.7383 -2.7250 -1.2527
H 0.1058 -2.3147 2.1207
H 1.7124 -2.6500 1.2921
H 0.2567 -3.6747 1.1493
H 2.0562 0.1569 2.9398
H 0.6203 -0.7962 3.2131
H 0.6805 0.7598 3.8765
H 2.0378 2.3830 1.6735
H 0.6850 2.7679 2.7806
H 0.4435 3.0120 1.1011
H -1.6150 0.0392 2.0911
H -1.6271 1.6008 1.1724
H -1.3292 1.5171 2.8960
H -1.6449 1.4236 -0.9018
H -1.6259 0.0182 -2.0191
H -1.4713 1.6079 -2.6500
H 0.4574 2.9578 -0.9000
H 0.4929 2.8586 -2.6198
H 1.9768 2.4146 -1.7135
H 0.4729 -0.7350 -3.1630
H 1.9806 0.1954 -2.9857
H 0.5507 0.8396 -3.8353
H 6.5253 -1.0975 -2.9492
H 3.9993 -1.8322 -1.3470
H 5.5197 -2.8669 -1.4934
H 4.5049 -2.5434 -2.9452
H 3.9474 0.3944 -2.2294
H 4.4033 -0.2125 -3.8951
H 5.3641 1.1142 -3.1445
H 8.2112 0.3189 -1.5181
H 8.0240 -1.2363 -0.5781
H 7.8004 1.6670 0.3659
H 8.4544 0.2229 1.2736
H 6.4874 0.0355 3.1150
H 5.6377 2.8520 2.1751
H 7.2911 2.3711 2.7354
H 5.9127 2.3353 3.8872
H 3.8413 1.1029 2.0077
H 4.1733 0.5717 3.7090
H 4.2037 -0.6387 2.3779
