49
 
N -0.6590 -1.2280 -0.0510
C 0.2018 -0.9946 0.9741
C 0.5397 -2.1120 1.8979
C 0.7418 0.2911 1.1566
C 0.3587 1.3227 0.2960
C -0.5393 1.0616 -0.7389
C -1.0318 -0.2360 -0.9049
Ag -1.5756 -3.1044 -0.2726
P -2.6494 -5.3024 -0.5321
O -3.8468 -5.9841 0.4938
C -4.7868 -4.9206 0.7892
C -5.7950 -5.2897 1.8940
C -4.1884 -3.5449 1.2381
O -3.6566 -5.0499 -1.8936
C -2.8900 -4.8016 -3.0614
C -1.8526 -5.9004 -3.3754
C -3.8555 -4.7292 -4.2508
O -1.5323 -6.5900 -0.3953
C -0.6432 -6.4730 0.6743
C -1.3831 -6.7626 1.9734
C 0.4345 -7.5495 0.4650
H -0.0130 -3.0470 1.5468
H 0.2314 -1.8149 2.9264
H 1.6458 -2.2566 1.9102
H 1.4338 0.4990 1.9635
H 0.7463 2.3246 0.4381
H -0.8616 1.8600 -1.3956
H -1.7498 -0.4461 -1.6865
H -5.3842 -4.7631 -0.1297
H -5.3197 -5.3538 2.8991
H -6.3430 -6.2257 1.6809
H -6.5539 -4.4724 1.9532
H -3.6691 -3.6070 2.2200
H -4.9995 -2.7913 1.2989
H -3.5062 -3.0920 0.5098
H -2.3865 -3.8125 -2.9743
H -2.3428 -6.8982 -3.4008
H -1.0377 -5.8986 -2.6304
H -1.3523 -5.7076 -4.3461
H -4.3940 -5.6950 -4.3774
H -3.2975 -4.5164 -5.1893
H -4.6023 -3.9226 -4.1010
H -0.1333 -5.4810 0.6913
H -1.9559 -7.7110 1.8581
H -2.0827 -5.9355 2.1995
H -0.6736 -6.8475 2.8162
H -0.0329 -8.5566 0.3738
H 1.1395 -7.5641 1.3216
H 1.0172 -7.3615 -0.4638
