60
 
P 1.0513 -0.0551 0.0658
O -0.0563 -0.8402 -0.9626
C 0.4287 -0.5905 -2.2857
O 0.6401 -0.8371 1.5185
C 1.1967 -0.0789 2.5678
O 0.6135 1.5254 -0.4358
C -0.7936 1.6643 -0.2853
Ag 3.5113 -0.0551 0.0658
P 5.9713 -0.0551 0.0658
C 6.7404 -0.9610 1.4721
C 6.5297 -0.6198 2.8639
C 5.7102 0.5371 3.3986
C 7.0814 -1.4408 3.8680
C 7.7896 -2.5900 3.5434
C 7.9614 -2.9430 2.2109
C 7.4485 -2.1403 1.1915
C 6.3404 -0.9720 -1.4649
C 5.4877 -1.9500 -2.0296
C 4.1898 -2.3687 -1.3934
C 5.8668 -2.5776 -3.2395
C 7.0593 -2.2411 -3.8854
C 7.8874 -1.2644 -3.3430
C 7.5314 -0.6337 -2.1466
C 6.5274 1.6707 0.1597
C 5.8060 2.7630 -0.4015
C 4.4539 2.6386 -1.0472
C 6.3837 4.0459 -0.3960
C 7.6580 4.2542 0.1287
C 8.3755 3.1848 0.6559
C 7.8183 1.9058 0.6677
H 0.0945 -1.3790 -2.9855
H 1.5455 -0.5661 -2.3850
H 0.0439 0.3802 -2.6690
H 0.7198 -0.3847 3.5228
H 1.0055 1.0189 2.4825
H 2.2836 -0.2898 2.6453
H -1.0872 2.7042 -0.5188
H -1.1281 1.4275 0.7473
H -1.3784 1.0541 -1.0122
H 5.2040 1.1405 2.6246
H 6.3584 1.1992 4.0165
H 4.9223 0.1428 4.0864
H 6.9374 -1.2073 4.9200
H 8.1872 -3.2197 4.3299
H 8.4841 -3.8554 1.9634
H 7.5818 -2.4769 0.1780
H 4.0284 -1.9877 -0.3860
H 4.2280 -3.4787 -1.2926
H 3.3473 -2.1032 -2.0541
H 5.2419 -3.3412 -3.6867
H 7.3406 -2.7346 -4.8103
H 8.8062 -0.9962 -3.8541
H 8.1944 0.1289 -1.7579
H 4.0605 1.6184 -1.0385
H 4.5228 2.9456 -2.1122
H 3.7269 3.2985 -0.5280
H 5.8515 4.8889 -0.8219
H 8.0969 5.2439 0.1095
H 9.3746 3.3434 1.0406
H 8.4162 1.0912 1.0535
