19
 
N -1.3900 -0.1120 -0.0540
C -0.8050 1.1104 0.0604
C 0.5901 1.2203 0.0702
Cl 1.3592 2.7971 0.0769
C 1.3663 0.0589 0.0337
C 0.7434 -1.1888 -0.0342
C -0.6511 -1.2525 -0.1087
Ag -3.4756 -0.2017 -0.2821
C -5.6110 -0.2936 -0.5156
N -6.4194 0.7789 -0.4220
C -7.6475 0.2773 -0.6415
C -7.5426 -1.0847 -0.8113
O -6.2715 -1.4025 -0.7583
H -1.4234 1.9987 0.0555
H 2.4473 0.1225 0.0451
H 1.3362 -2.0942 -0.0525
H -1.1486 -2.2100 -0.1865
H -8.5568 0.8627 -0.6691
H -8.3536 -1.7839 -0.9661
