60
 
P 1.0731 0.0378 0.0568
O -0.0694 1.1539 -0.5142
C 0.4628 2.4311 -0.1301
O 0.5786 -1.3171 -0.8534
C 1.1778 -2.4650 -0.2903
O 0.7280 0.4473 1.6839
C 1.3321 -0.4609 2.5507
Ag 3.5331 0.0378 0.0568
P 5.9931 0.0378 0.0568
C 6.7146 1.6587 -0.3014
C 5.7761 2.6978 -0.4760
C 6.1757 3.9611 -0.9209
C 7.5230 4.2014 -1.2153
C 7.9525 5.5012 -1.8369
C 8.4699 3.1940 -0.9668
C 8.0732 1.9319 -0.4966
C 6.4118 -0.3664 1.7718
C 7.2012 -1.5059 2.0439
C 7.4285 -1.9193 3.3645
C 6.8634 -1.2036 4.4296
C 6.9994 -1.6846 5.8479
C 6.1273 -0.0399 4.1589
C 5.9073 0.3795 2.8395
C 6.4584 -1.0170 -1.3555
C 5.5021 -1.6794 -2.1489
C 5.9125 -2.6082 -3.1245
C 7.2768 -2.8819 -3.3198
C 7.7349 -3.9452 -4.2778
C 8.2261 -2.1872 -2.5673
C 7.8201 -1.2757 -1.5929
H 0.1635 3.2370 -0.8268
H 1.5885 2.5056 -0.0994
H 0.0876 2.6953 0.8819
H 0.7164 -3.3684 -0.7391
H 0.9839 -2.5935 0.7912
H 2.2670 -2.4838 -0.5024
H 1.1816 -0.0785 3.5810
H 2.4256 -0.5240 2.3656
H 0.8100 -1.4344 2.5370
H 4.7160 2.5187 -0.3034
H 5.4291 4.7327 -1.0805
H 7.0927 6.1863 -2.0049
H 8.3960 5.2820 -2.8341
H 8.7093 6.0131 -1.2111
H 9.5152 3.3765 -1.1764
H 8.8242 1.1804 -0.3469
H 7.6215 -2.1004 1.2407
H 8.0142 -2.8138 3.5551
H 7.5762 -2.6325 5.9138
H 5.9827 -1.8835 6.2543
H 7.4921 -0.9167 6.4776
H 5.6951 0.5250 4.9735
H 5.3084 1.2579 2.6530
H 4.4431 -1.5253 -1.9907
H 5.1697 -3.1426 -3.7046
H 6.8771 -4.4584 -4.7605
H 8.3040 -4.7105 -3.7038
H 8.3974 -3.5230 -5.0615
H 9.2838 -2.3829 -2.7041
H 8.5868 -0.8165 -0.9979
