31
 
N -1.4128 -0.0084 -0.0848
C -0.6513 -0.9343 -0.7404
C 0.7009 -1.0931 -0.4186
C 1.3323 -0.1625 0.3801
C 0.6103 0.9207 0.8534
C -0.7913 0.9175 0.7127
Ag -3.4682 -0.0741 -0.2870
N -5.5216 -0.2196 -0.5150
C -6.1507 -1.4538 -0.6992
N -5.4262 -2.7111 -0.6467
C -4.0053 -2.7891 -0.4071
C -6.0564 -3.9995 -0.8913
C -7.5689 -1.4751 -0.8379
C -8.2601 -0.3149 -1.0787
C -7.6169 0.8827 -0.9204
C -6.2817 0.9100 -0.4894
H -1.1001 -1.6021 -1.4392
H 1.2771 -1.9272 -0.7845
H 2.3850 -0.2825 0.5973
H 1.1419 1.7239 1.3451
H -1.3496 1.7058 1.1983
H -3.5877 -1.8863 -0.2785
H -3.4441 -3.1501 -1.2758
H -3.7591 -3.3256 0.5230
H -7.1166 -3.9571 -1.0949
H -5.9437 -4.6618 -0.0149
H -5.6199 -4.4743 -1.7889
H -8.1942 -2.3421 -0.8173
H -9.3071 -0.3350 -1.3624
H -8.1804 1.7814 -1.1153
H -5.8404 1.8539 -0.2881
