23
 
N -1.4115 -0.0856 -0.0535
C -0.7575 -0.7578 0.9344
C 0.5772 -0.4809 1.2604
C 1.3215 0.3465 0.4431
Cl 2.9774 0.7330 0.8735
C 0.7111 0.8425 -0.6941
C -0.6750 0.7124 -0.8694
Ag -3.4788 -0.1889 -0.2660
N -5.5419 -0.2692 -0.5030
C -6.1617 0.5187 -1.4257
F -5.4260 1.3721 -2.1851
C -7.5562 0.5187 -1.5379
C -8.3234 -0.1048 -0.5755
C -7.7044 -0.9132 0.3464
C -6.3190 -1.0556 0.2949
H -1.2305 -1.5478 1.4830
H 1.0716 -0.9068 2.1237
H 1.3085 1.3652 -1.4055
H -1.1687 1.2954 -1.6402
H -8.0536 1.0332 -2.3304
H -9.3992 -0.0146 -0.5339
H -8.3279 -1.4308 1.0661
H -5.8960 -1.8372 0.8905
