22
 
N -1.3900 -0.1120 -0.0540
C -0.8025 1.1065 0.0932
C 0.5987 1.2175 0.0460
C 1.2788 2.5540 -0.0140
C 1.3675 0.0496 -0.0258
C 0.7401 -1.1923 -0.1180
C -0.6540 -1.2488 -0.1752
Ag -3.4756 -0.2017 -0.2821
C -5.6110 -0.2936 -0.5156
N -6.2787 -1.4182 -0.8351
C -7.5660 -1.0313 -0.8669
C -7.6255 0.3203 -0.6124
O -6.4070 0.7408 -0.3707
H -1.4266 1.9905 0.1263
H 0.5468 3.3890 -0.0093
H 1.8353 2.6111 -0.9781
H 1.9983 2.6797 0.8182
H 2.4494 0.1046 -0.0438
H 1.3303 -2.0968 -0.1864
H -1.1542 -2.2000 -0.2981
H -8.4021 -1.6875 -1.0681
H -8.5116 0.9408 -0.6055
