31
 
N -0.6590 -1.2280 -0.0510
C -1.4028 -0.1005 -0.1337
O -2.7340 -0.1943 -0.3569
C -3.4065 -1.4050 -0.4539
C -0.7578 1.1492 -0.0938
C 0.6336 1.1998 0.0755
C 1.3633 0.0163 0.1873
C 0.6917 -1.2003 0.0946
Ag -1.5756 -3.1044 -0.2726
N -2.4923 -4.9807 -0.4941
C -2.2864 -5.7272 -1.6172
O -1.5210 -5.2612 -2.6338
C -0.8731 -4.0433 -2.6134
C -3.0220 -6.9105 -1.7973
C -3.8760 -7.3540 -0.7831
C -4.0302 -6.5926 0.3728
C -3.3747 -5.3658 0.4661
H -4.4665 -1.1888 -0.7009
H -3.3464 -1.9635 0.4902
H -3.0030 -2.0344 -1.2482
H -1.3126 2.0703 -0.2130
H 1.1519 2.1504 0.1099
H 2.4374 0.0375 0.3285
H 1.2374 -2.1325 0.1690
H -0.3543 -3.8835 -3.5806
H -0.1520 -4.0279 -1.7606
H -1.5963 -3.2078 -2.5096
H -2.9539 -7.4722 -2.7204
H -4.4285 -8.2784 -0.8945
H -4.6596 -6.9408 1.1830
H -3.4762 -4.7666 1.3624
