23
 
N -0.6790 1.1930 0.0010
C -1.4175 0.0529 -0.0380
F -2.7699 0.1338 -0.0762
C -0.7851 -1.1927 -0.0471
C 0.6101 -1.2480 -0.0100
F 1.2424 -2.4474 -0.0159
C 1.3514 -0.0636 0.0331
C 0.6794 1.1633 0.0352
F 1.3758 2.3250 0.0782
Ag -1.6914 3.0329 0.0055
N -2.7038 4.8727 0.0100
C -4.0626 4.8585 0.0012
F -4.7182 3.6723 -0.0107
C -4.7769 6.0589 0.0069
C -4.0768 7.2676 0.0196
F -4.7521 8.4432 0.0250
C -2.6789 7.2605 0.0271
C -2.0017 6.0365 0.0229
F -0.6470 6.0037 0.0309
H -1.3697 -2.1032 -0.0829
H 2.4327 -0.0969 0.0642
H -5.8595 6.0517 0.0017
H -2.1282 8.1922 0.0365
