45
 
P 1.0599 -0.0429 0.0676
O 0.0192 0.8187 -0.9890
C 0.5414 2.1570 -0.9709
C -0.1518 3.0873 -1.9497
O 0.5444 -1.6468 -0.1913
C 0.8077 -2.0568 -1.4987
C 2.3099 -2.1142 -1.7723
O 0.5826 0.8127 1.4817
C -0.8397 0.7071 1.5836
C -1.3755 1.5356 2.7334
Ag 3.5199 -0.0429 0.0676
N 5.6199 -0.0429 0.0676
C 6.4546 0.9990 0.1809
N 7.7448 0.5883 0.1483
C 8.9330 1.4096 0.2008
C 8.8413 2.8143 0.2938
C 9.9942 3.6034 0.2842
C 11.2520 3.0071 0.1875
C 11.3610 1.6190 0.1145
C 10.2143 0.8248 0.1228
C 7.6919 -0.7600 0.0213
C 6.3756 -1.1440 -0.0295
H 1.6366 2.1993 -1.1984
H 0.3665 2.6325 0.0192
H 0.1032 2.8240 -2.9949
H 0.1997 4.1292 -1.7567
H -1.2478 3.0585 -1.7906
H 0.2437 -1.4446 -2.2349
H 0.4020 -3.0899 -1.5806
H 2.7625 -1.1029 -1.7605
H 2.4733 -2.5531 -2.7733
H 2.7957 -2.7393 -0.9935
H -1.1560 -0.3501 1.7144
H -1.3762 1.1403 0.7112
H -0.9881 1.1485 3.6937
H -2.4879 1.4721 2.7327
H -1.0910 2.6019 2.6009
H 6.1143 2.0195 0.2775
H 7.8871 3.3152 0.3606
H 9.9099 4.6806 0.3422
H 12.1427 3.6198 0.1675
H 12.3349 1.1532 0.0413
H 10.3455 -0.2441 0.0545
H 8.5322 -1.4351 -0.0402
H 5.9914 -2.1502 -0.1310
