52
 
N -1.4555 0.2436 0.0622
C -0.5087 -0.4897 -0.5658
C 0.8106 -0.4064 -0.1488
C 1.2238 0.5381 0.8111
N 2.5926 0.5884 1.2865
C 3.6301 -0.3297 0.8087
C 3.0133 1.5132 2.3349
C 0.2240 1.4092 1.2971
C -1.1123 1.1755 0.9858
Ag -3.4077 -0.1004 -0.2397
P -5.6909 -0.4831 -0.5763
N -6.5260 -1.8269 -1.2971
C -5.8865 -1.9724 -2.6077
C -6.4240 -3.1003 -0.5385
O -6.2204 0.8705 -1.5058
C -6.3883 2.1152 -0.9496
C -5.5504 3.1410 -1.3851
C -5.6335 4.4235 -0.8392
C -6.5788 4.7143 0.1401
C -7.4624 3.7261 0.5625
C -7.3762 2.4200 0.0314
C -8.3241 1.4056 0.5072
C -9.7040 1.7166 0.5684
C -10.6244 0.7499 0.9723
C -10.1780 -0.5085 1.3602
C -8.8145 -0.8003 1.3584
C -7.8735 0.1269 0.9092
O -6.5547 -0.2359 0.8842
H -0.7816 -1.1981 -1.3213
H 1.4577 -1.1211 -0.5902
H 3.3211 -1.0542 0.0511
H 4.0130 -0.9560 1.6418
H 4.4567 0.2396 0.3442
H 2.2304 2.1675 2.7206
H 3.8016 2.1843 1.9484
H 3.3711 0.9565 3.2254
H 0.4113 2.2464 1.9391
H -1.8677 1.7758 1.4826
H -5.9844 -1.0118 -3.1677
H -6.3957 -2.7512 -3.2012
H -4.7994 -2.2089 -2.5383
H -6.8526 -2.9889 0.4752
H -5.4129 -3.4754 -0.4980
H -6.9489 -3.8908 -1.1150
H -4.8133 2.9316 -2.1419
H -4.9562 5.1939 -1.1725
H -6.6256 5.7072 0.5694
H -8.1884 3.9769 1.3309
H -10.0789 2.6890 0.2652
H -11.6837 0.9676 0.9804
H -10.8839 -1.2723 1.6505
H -8.4847 -1.7792 1.6532
