36
 
N -1.4071 0.1633 -0.4140
C -0.7757 -0.4058 -1.4785
C 0.6142 -0.5234 -1.5044
C 1.3867 0.0119 -0.4663
O 2.7447 -0.1017 -0.4702
C 3.4454 -0.8015 -1.4410
C 0.7253 0.6801 0.5765
C -0.6831 0.7004 0.6105
Ag -3.4183 -0.1176 -0.3513
N -5.3863 -0.4214 -0.3465
C -5.1792 -1.2394 0.8191
C -6.3220 0.5661 0.2516
C -5.9336 -1.2426 -1.4341
C -5.0650 -1.7493 -2.4248
C -5.5431 -2.4130 -3.5551
C -6.8901 -2.7023 -3.6978
C -7.7709 -2.3860 -2.6624
C -7.3158 -1.6439 -1.5395
H -1.3542 -0.8219 -2.2916
H 1.0908 -1.0249 -2.3337
H 4.5363 -0.7197 -1.2796
H 3.2136 -0.3792 -2.4443
H 3.1565 -1.8780 -1.4200
H 1.2870 1.1662 1.3658
H -1.1794 1.1161 1.4701
H -4.6155 -0.6209 1.5648
H -4.3595 -1.9488 0.4987
H -6.0274 -1.7923 1.2453
H -5.8026 1.2625 0.9369
H -7.1633 0.0894 0.8063
H -6.8478 1.1834 -0.5317
H -3.9996 -1.6120 -2.3789
H -4.8425 -2.6852 -4.3320
H -7.2225 -3.1903 -4.6092
H -8.8069 -2.7004 -2.7687
H -8.0599 -1.3986 -0.7850
