37
 
N -1.4228 -0.0894 -0.0484
C -0.5748 -0.6114 -0.9899
C 0.7705 -0.8111 -0.6913
C 1.3525 -0.2266 0.4158
N 2.7437 -0.4255 0.7320
C 3.7523 -0.6642 -0.2947
C 3.1959 -0.4589 2.1103
C 0.5049 0.5677 1.1944
C -0.8802 0.5031 1.0372
Ag -3.4657 -0.1831 -0.3006
N -5.4965 -0.2621 -0.5235
C -6.3138 0.3149 0.3905
C -5.7370 1.0391 1.5623
C -7.6916 0.3491 0.1672
C -8.1570 0.0941 -1.1185
C -7.3822 -0.6907 -1.9400
C -6.0451 -0.8750 -1.6232
C -5.2355 -1.7766 -2.4702
H -0.9161 -0.9990 -1.9197
H 1.3229 -1.4130 -1.3510
H 3.3875 -0.6560 -1.3088
H 4.2165 -1.6545 -0.1878
H 4.5181 0.1187 -0.2740
H 2.4078 -0.3105 2.8306
H 3.9234 0.3373 2.2939
H 3.6255 -1.4365 2.3703
H 0.8654 1.2074 1.9484
H -1.5097 0.9945 1.7533
H -4.6340 0.9952 1.5305
H -6.1018 0.6120 2.4967
H -6.0150 2.1234 1.5389
H -8.3787 0.6271 0.9468
H -9.1230 0.4420 -1.4511
H -7.8074 -1.1564 -2.8152
H -5.8385 -2.2319 -3.2816
H -4.8532 -2.6045 -1.8418
H -4.4041 -1.2224 -2.8980
