30
 
N -1.3918 -0.1182 -0.0531
C -0.7092 -0.9930 0.7734
C 0.6080 -0.7545 1.1476
C 1.3361 0.1751 0.4975
O 2.6400 0.4199 0.8761
C 3.2476 -0.2667 1.9358
C 0.7159 0.8568 -0.5553
C -0.6734 0.8145 -0.7262
Ag -3.4732 -0.2040 -0.2820
N -5.5585 -0.2937 -0.4907
C -6.4152 -0.2596 0.6051
N -7.7456 -0.5829 0.5034
C -8.3163 -0.7134 -0.7095
O -9.6462 -1.0714 -0.8198
C -10.4358 -1.3257 0.3073
C -7.5141 -0.4613 -1.8302
C -6.1203 -0.3899 -1.7194
H -1.1875 -1.8568 1.1461
H 1.0656 -1.2802 1.9227
H 4.2612 0.0612 2.0863
H 3.2528 -1.3319 1.7248
H 2.6882 -0.1043 2.8524
H 1.3111 1.4210 -1.2057
H -1.1593 1.4939 -1.3638
H -6.0401 0.0518 1.5514
H -11.4443 -1.5952 0.0258
H -10.4765 -0.4422 0.9341
H -10.0102 -2.1374 0.8862
H -7.9749 -0.3398 -2.7623
H -5.5079 -0.4362 -2.5721
