66
 
P 0.9477 0.0524 0.0672
C 0.0644 -1.3435 -0.7526
C 0.5216 -1.4203 -2.2146
C 0.1603 -2.8386 -2.6122
C 0.6409 -3.6587 -1.4274
C 0.5174 -2.7226 -0.2117
C 0.5090 -0.0118 1.8668
C 0.9929 -1.2091 2.6544
C 0.7608 -0.7375 4.0858
C 1.2879 0.6872 4.0860
C 1.0861 1.1760 2.6531
C 0.3418 1.5181 -0.8743
C -1.1829 1.6245 -0.7440
C -1.4561 3.0733 -1.0960
C -0.3721 3.8147 -0.3308
C 0.8388 2.8647 -0.3079
Ag 3.4077 0.0524 0.0672
C 5.5577 0.0524 0.0672
N 6.3090 -0.3725 1.0942
C 5.8227 -0.8693 2.3714
C 7.5903 -0.2536 0.6969
C 7.5933 0.2307 -0.5971
N 6.3127 0.4271 -0.9816
C 5.8545 0.9569 -2.2379
C 6.6445 0.8347 -3.3961
C 6.2248 1.3983 -4.6034
C 5.0281 2.1151 -4.6614
C 4.2300 2.2369 -3.5198
C 4.6265 1.6407 -2.3161
H -1.0441 -1.2902 -0.7175
H 1.6316 -1.3161 -2.2757
H 0.0503 -0.6537 -2.8640
H 0.6031 -3.1690 -3.5796
H -0.9446 -2.9093 -2.6716
H 1.7259 -3.8722 -1.5763
H 0.1168 -4.6342 -1.3287
H 1.5394 -2.6717 0.2331
H -0.1860 -3.1089 0.5526
H -0.6010 0.0304 1.9817
H 2.0755 -1.3590 2.4634
H 0.4170 -2.1309 2.4470
H 1.2235 -1.3771 4.8656
H -0.3378 -0.6930 4.2643
H 2.3850 0.6640 4.2706
H 0.8122 1.3275 4.8615
H 2.0987 1.4230 2.2583
H 0.4190 2.0655 2.6133
H 0.6037 1.4954 -1.9550
H -1.4880 1.4677 0.3140
H -1.7385 0.9065 -1.3859
H -2.4856 3.4092 -0.8314
H -1.2895 3.2116 -2.1824
H -0.7332 3.9203 0.7210
H -0.1606 4.8328 -0.7187
H 1.1411 2.8141 0.7421
H 1.7381 3.2299 -0.8423
H 4.7080 -0.8570 2.3849
H 6.2073 -0.2303 3.1936
H 6.1809 -1.9103 2.5205
H 8.4568 -0.4998 1.2966
H 8.4683 0.4487 -1.1956
H 7.5791 0.2901 -3.3713
H 6.8351 1.2891 -5.4911
H 4.7206 2.5751 -5.5920
H 3.3079 2.8018 -3.5681
H 4.0006 1.7506 -1.4399
