47
 
P -0.0940 -2.5890 -0.0020
N -1.3217 -3.1627 -1.1490
C -0.6272 -4.2184 -1.9295
C -2.3790 -3.9011 -0.3989
O 0.9611 -1.8253 -1.0089
C 1.5149 -0.6978 -0.5176
C 2.9118 -0.6320 -0.5138
C 3.5726 0.4763 0.0092
C 2.8425 1.5502 0.5109
C 1.4464 1.5214 0.4898
C 0.7462 0.3984 -0.0037
C -0.7615 0.4457 0.0273
C -1.3963 1.6082 -0.4590
C -2.7893 1.7140 -0.4811
C -3.5785 0.6848 0.0238
C -2.9808 -0.4542 0.5497
C -1.5894 -0.6012 0.5401
O -1.0845 -1.7530 1.0213
Ag 1.4250 -4.0575 1.2581
N 2.7217 -5.3111 2.3338
C 2.9203 -5.1639 3.6683
N 3.8123 -5.9638 4.3106
C 4.5113 -6.9239 3.6395
O 5.4186 -7.7006 4.2771
C 5.7635 -7.5372 5.6017
C 4.2973 -7.0996 2.2715
C 3.3858 -6.2644 1.6318
H 0.2032 -3.7972 -2.5275
H -1.3214 -4.7402 -2.6243
H -0.1871 -5.0142 -1.2660
H -2.9349 -3.2548 0.2985
H -1.9804 -4.7594 0.2019
H -3.1344 -4.3259 -1.0980
H 3.4883 -1.4636 -0.8991
H 4.6541 0.4988 0.0285
H 3.3610 2.4075 0.9213
H 0.9113 2.3723 0.8947
H -0.8125 2.4279 -0.8592
H -3.2600 2.5967 -0.8928
H -4.6573 0.7639 0.0069
H -3.6086 -1.2409 0.9442
H 2.3833 -4.4036 4.2173
H 6.5177 -8.3003 5.8830
H 4.8684 -7.6598 6.2471
H 6.2033 -6.5282 5.7591
H 4.8343 -7.8539 1.7091
H 3.2099 -6.3629 0.5684
