135
 
C 1.0240 -0.6530 -0.0550
N 0.3144 -0.6095 1.0875
C 0.2805 -1.3884 2.4424
C 1.2479 -2.3578 3.1682
C 2.6925 -2.8619 2.8206
C 3.2979 -4.1678 3.5354
C 2.6268 -3.3660 1.5670
C 0.8080 -3.0818 4.3072
C -0.3479 -2.8581 4.9424
C -1.1810 -1.9390 4.4498
C -0.9663 -1.3088 3.2068
C -2.2617 -0.6724 2.7940
C -3.3699 -1.7797 2.7114
C -2.3317 0.6689 3.5699
C -0.7276 0.3867 0.7422
C -0.2042 1.2185 -0.2760
N 0.5079 0.3164 -1.0830
C 0.7770 0.6944 -2.5030
C 0.7827 2.1151 -2.9438
C 0.4744 3.3875 -2.0696
C 1.5362 4.4679 -2.0709
C -0.9415 4.0258 -2.1604
C 1.2259 2.4025 -4.2516
C 1.6696 1.4168 -5.1160
C 1.5735 0.0953 -4.7734
C 1.0854 -0.3006 -3.5315
C 0.9253 -1.7953 -3.3656
C -0.0066 -2.5183 -4.3635
C 2.2389 -2.5793 -3.4379
Ag 2.7802 -1.8697 -0.2955
C 4.5364 -3.0865 -0.5360
N 5.7742 -2.6331 -0.6524
C 6.3599 -1.2336 -0.9155
C 5.7242 0.1374 -0.8923
C 4.2623 0.4387 -0.6434
C 3.7358 1.8887 -0.8905
C 3.7017 -0.2750 -1.8046
C 6.4369 1.2906 -1.3442
C 7.7299 1.2543 -1.7228
C 8.3652 0.0696 -1.7226
C 7.7073 -1.1448 -1.4278
C 8.5343 -2.2871 -1.9124
C 8.6900 -2.0870 -3.4731
C 9.6305 -2.5366 -0.8383
C 6.5807 -3.8811 -0.6067
C 5.7559 -4.8977 0.0472
N 4.4641 -4.5969 -0.4982
C 3.4569 -5.6790 -0.7934
C 1.9547 -5.5348 -0.7262
C 1.0809 -4.3639 -0.2847
C 0.0550 -3.7930 -1.1328
C 0.2261 -4.5008 1.1464
C 1.1197 -6.5555 -1.1100
C 1.5925 -7.7080 -1.6123
C 2.9299 -7.9577 -1.6390
C 3.9218 -7.0471 -1.1970
C 5.3900 -7.6502 -1.3116
C 5.8490 -8.4792 -0.0625
C 5.5722 -8.5810 -2.5085
H 3.3693 -1.9887 2.6775
H 2.5605 -5.0306 3.4903
H 3.5883 -3.9745 4.5532
H 4.1394 -4.6680 2.9668
H 2.5102 -4.4547 1.4552
H 3.5254 -3.6427 1.2468
H 1.9203 -2.7149 1.0862
H 1.3366 -3.8844 4.7771
H -0.6183 -3.4341 5.8200
H -2.0870 -1.7977 5.0239
H -2.4592 -0.4439 1.7930
H -3.5345 -2.3924 3.6169
H -3.0472 -2.5312 1.9374
H -4.3520 -1.4071 2.3742
H -2.7529 0.4200 4.5260
H -2.8888 1.4892 3.0593
H -1.3137 1.1102 3.8186
H -1.0310 1.1522 1.4986
H -1.5569 -0.0721 0.1355
H 0.5056 1.8456 0.3143
H -1.0312 1.7434 -0.8065
H 0.6256 3.1671 -1.0654
H 1.5976 4.9592 -3.0504
H 2.5133 4.0422 -1.7788
H 1.2693 5.2173 -1.2859
H -1.0786 4.5977 -3.0948
H -1.0829 4.7389 -1.3066
H -1.7762 3.3039 -2.0527
H 1.2908 3.4174 -4.6088
H 2.0825 1.6668 -6.0824
H 1.8947 -0.6397 -5.4994
H 0.4524 -1.8268 -2.4048
H 0.3659 -2.4250 -5.4021
H -1.0570 -2.1899 -4.2754
H -0.0039 -3.6182 -4.1585
H 2.7730 -2.3919 -4.3927
H 2.1770 -3.6770 -3.3387
H 2.7409 -2.3917 -2.5300
H 3.9411 0.1047 0.3932
H 3.9289 2.2132 -1.9505
H 4.1906 2.6335 -0.2143
H 2.6368 1.9223 -0.7943
H 3.9513 0.1613 -2.7818
H 2.6727 -0.3477 -1.7018
H 4.1096 -1.2447 -1.8565
H 6.0209 2.2758 -1.4741
H 8.2328 2.1451 -2.0843
H 9.3877 0.0941 -2.0732
H 8.1202 -3.2326 -2.0707
H 9.0997 -1.1160 -3.8214
H 7.6504 -2.0857 -3.9058
H 9.2148 -2.8870 -4.0238
H 10.3625 -1.7735 -1.0065
H 9.9734 -3.5984 -0.8348
H 9.4210 -2.3133 0.2546
H 7.5142 -3.8730 -0.0017
H 6.6413 -4.3667 -1.6193
H 5.7371 -4.7368 1.1388
H 6.1983 -5.8838 0.0655
H 1.8534 -3.6186 -0.6168
H -0.8701 -4.3506 -1.0823
H 0.4557 -3.8386 -2.1201
H -0.1129 -2.7721 -0.6927
H -0.5441 -5.2616 1.3353
H -0.2506 -3.5241 1.3625
H 0.6994 -4.6887 2.1261
H 0.0488 -6.4388 -1.0563
H 0.8908 -8.4339 -1.9794
H 3.1324 -8.9216 -2.0463
H 6.1274 -6.8868 -1.6125
H 5.1613 -9.3311 0.1400
H 5.9375 -7.8941 0.8750
H 6.8581 -8.9271 -0.2441
H 5.0256 -9.5322 -2.3563
H 6.6270 -8.9036 -2.6350
H 5.2520 -8.0100 -3.4009
