65
 
P -0.0940 -2.5890 -0.0020
N -0.6655 -2.6961 -1.7079
C 0.5536 -2.6763 -2.4726
C -1.1947 -4.0901 -1.9576
O 0.6440 -1.1159 0.0504
C 0.3580 -0.3650 1.1336
C 1.4330 0.0253 1.9402
C 1.2226 0.7673 3.0980
C -0.0659 1.1588 3.4484
C -1.1505 0.8100 2.6423
C -0.9750 0.0262 1.4842
C -2.2018 -0.3312 0.6901
C -3.1407 0.6907 0.4146
C -4.2965 0.4346 -0.3253
C -4.5504 -0.8495 -0.7966
C -3.6607 -1.8888 -0.5080
C -2.4871 -1.6552 0.2402
O -1.6631 -2.7033 0.5312
Ag 1.4250 -4.0575 1.2581
P 2.9440 -5.5260 2.5182
N 3.7381 -6.2116 3.9382
C 2.6866 -6.7179 4.8373
C 4.7531 -7.2159 3.6528
O 2.3865 -6.9187 1.8778
C 2.6914 -7.3039 0.6363
C 2.5767 -8.6812 0.4422
C 2.8809 -9.2566 -0.7780
C 3.2613 -8.4543 -1.8382
C 3.3568 -7.0815 -1.6800
C 3.1053 -6.4368 -0.4419
C 3.2938 -4.9149 -0.3969
C 3.1677 -4.2155 -1.6004
C 3.2884 -2.8326 -1.6796
C 3.4545 -2.0860 -0.5351
C 3.7206 -2.7385 0.6558
C 3.7347 -4.1379 0.7177
O 4.1444 -4.6903 1.8683
H 1.0580 -1.6999 -2.3539
H 0.5248 -3.0168 -3.5269
H 1.0875 -3.5105 -2.0637
H -2.2023 -4.2644 -1.5518
H -0.5274 -4.8983 -1.5479
H -1.2428 -4.3261 -3.0532
H 2.4395 -0.2701 1.6815
H 2.0623 1.0357 3.7256
H -0.2261 1.7316 4.3517
H -2.1401 1.1256 2.9476
H -2.9707 1.7047 0.7557
H -4.9959 1.2363 -0.5370
H -5.4461 -1.0398 -1.3782
H -3.8915 -2.8765 -0.8811
H 1.9421 -5.9157 5.0548
H 3.1146 -7.0280 5.8125
H 2.1444 -7.5775 4.3850
H 5.5606 -6.7608 3.0454
H 4.3157 -8.0952 3.1401
H 5.2072 -7.5438 4.6149
H 2.2708 -9.3138 1.2689
H 2.8287 -10.3269 -0.8990
H 3.5031 -8.8880 -2.7963
H 3.6803 -6.5558 -2.5590
H 2.8761 -4.6976 -2.5211
H 3.1307 -2.3516 -2.6361
H 3.3941 -1.0082 -0.5859
H 3.9084 -2.1578 1.5459
