94
 
P 1.0653 0.0270 -0.0707
C 0.0604 1.4584 0.8534
C 0.2521 1.5965 2.4057
C 1.6920 1.9732 2.8265
C 2.1486 3.2869 2.1926
C 1.8705 3.3028 0.6784
C 0.3754 2.9474 0.4473
C 0.8966 0.0530 -2.0100
C -0.5500 -0.0675 -2.5569
C -1.2929 1.2722 -2.4722
C -0.5834 2.3463 -3.3131
C 0.9084 2.4764 -2.9359
C 1.6086 1.1276 -2.9037
C 0.4625 -1.5469 0.8068
C 1.0574 -2.7836 0.1113
C 2.5931 -2.7734 0.2540
C 3.0181 -2.7531 1.7335
C 2.2866 -1.6828 2.5321
C 0.7797 -1.7544 2.3112
Ag 3.5253 0.0270 -0.0707
C 5.6753 0.0270 -0.0707
N 6.4843 0.0036 1.0047
C 6.2945 0.5061 2.3730
C 5.3514 0.1324 3.5725
C 5.8925 0.9961 4.7785
C 5.8661 2.5126 4.4654
C 6.6107 2.8277 3.1788
C 6.0564 1.9905 2.0781
C 7.7388 -0.1468 0.4979
C 7.6853 -0.2243 -0.8816
N 6.3884 -0.1487 -1.2281
C 5.6747 0.0795 -2.4843
C 5.6126 1.6340 -2.5019
C 6.6563 2.2056 -3.4689
C 6.2274 1.8337 -4.8797
C 6.2913 0.3108 -5.0455
C 5.4895 -0.4223 -3.9636
H -1.0192 1.2762 0.6973
H -0.1396 0.7720 2.9647
H -0.4172 2.3983 2.7951
H 2.3884 1.2118 2.5030
H 1.7599 2.0579 3.9348
H 3.2233 3.4718 2.4111
H 1.5809 4.1152 2.6659
H 2.5366 2.5946 0.1250
H 2.0949 4.3334 0.3211
H -0.0593 3.2380 -0.5006
H -0.2151 3.6684 1.0615
H 1.4147 -0.8874 -2.2975
H -1.1024 -0.8754 -2.0404
H -0.5166 -0.3420 -3.6424
H -1.3391 1.5916 -1.4266
H -2.3378 1.1575 -2.8351
H -1.1045 3.3216 -3.1828
H -0.6597 2.0716 -4.3900
H 1.0969 2.8602 -1.9656
H 1.3985 3.2128 -3.6063
H 2.6552 1.2511 -2.6014
H 1.6081 0.7845 -3.9677
H -0.6455 -1.5818 0.6901
H 0.7551 -2.8022 -0.9541
H 0.6410 -3.7079 0.5804
H 2.9759 -1.9147 -0.2943
H 3.0357 -3.6589 -0.2381
H 4.1097 -2.5642 1.8068
H 2.7853 -3.7357 2.1939
H 2.6511 -0.7331 2.1546
H 2.5194 -1.7604 3.6177
H 0.2591 -1.0971 2.9875
H 0.3787 -2.7358 2.6561
H 7.2739 0.2603 2.8362
H 5.3897 -0.9385 3.8735
H 4.2849 0.3956 3.4103
H 6.9536 0.7131 4.9764
H 5.3364 0.8245 5.7224
H 6.3421 3.1077 5.2728
H 4.8125 2.8408 4.3495
H 7.6970 2.5905 3.2572
H 6.4944 3.8921 2.8926
H 6.5844 2.3161 1.1555
H 4.9707 2.1502 1.8891
H 8.6457 -0.0834 1.0906
H 8.5333 -0.2376 -1.5526
H 4.8757 -0.6346 -2.1897
H 5.8381 2.0934 -1.5109
H 4.6171 1.9855 -2.7799
H 7.6825 1.8191 -3.2555
H 6.6784 3.3102 -3.3713
H 6.8849 2.3215 -5.6282
H 5.1904 2.2152 -5.0390
H 7.3391 -0.0287 -4.9894
H 5.8754 0.0558 -6.0500
H 5.5222 -1.5198 -4.1344
H 4.4227 -0.1311 -4.1825
