55
 
P 0.9285 -0.0666 0.0211
C -0.0071 -1.5612 0.7620
C 0.5538 -2.8938 0.2107
C 2.0769 -3.0211 0.4965
C 2.3369 -3.0499 2.0081
C 1.6623 -1.8633 2.7066
C 0.1677 -1.7699 2.3033
C 0.1770 1.4251 1.0052
C 0.3722 1.6151 2.5464
C 1.7760 2.0592 2.9729
C 2.2946 3.2634 2.1715
C 1.9949 3.1781 0.6638
C 0.5102 2.8412 0.4465
C 0.7919 -0.1022 -1.8862
C 1.4287 1.1681 -2.5297
C 2.9652 1.1510 -2.6020
C 3.4354 -0.0447 -3.4185
C 2.8961 -1.3335 -2.7975
C 1.3586 -1.2870 -2.7436
Ag 3.3885 -0.0666 0.0211
C 5.5385 -0.0666 0.0211
O 6.7566 -0.0666 0.0211
H -1.0923 -1.4837 0.5418
H 0.3057 -3.0002 -0.8330
H 0.0254 -3.7610 0.6717
H 2.6431 -2.1670 0.0575
H 2.4716 -3.9575 0.0488
H 3.4326 -3.0372 2.2083
H 1.9266 -3.9951 2.4258
H 2.1957 -0.9381 2.4142
H 1.7633 -1.9950 3.8084
H -0.3961 -1.0485 2.8815
H -0.3389 -2.7092 2.6270
H -0.9150 1.2913 0.8486
H 0.0829 0.7997 3.1874
H -0.3437 2.4126 2.8512
H 1.7300 2.3551 4.0492
H 2.4705 1.2092 2.8853
H 3.3869 3.3834 2.3521
H 1.7882 4.1744 2.5529
H 2.6222 2.4193 0.1607
H 2.2304 4.1718 0.2199
H 0.1666 2.9852 -0.5815
H -0.0942 3.6148 0.9771
H -0.3035 -0.0634 -2.0685
H 1.1385 2.0703 -2.0232
H 1.0521 1.2759 -3.5693
H 3.4128 1.1171 -1.6084
H 3.3384 2.0883 -3.0611
H 4.5451 -0.0748 -3.4561
H 3.0607 0.0643 -4.4623
H 3.3301 -1.4643 -1.7834
H 3.2108 -2.1833 -3.4450
H 0.9677 -2.2736 -2.5172
H 1.0067 -1.1397 -3.7931
