54
 
P 0.9126 0.0374 0.0309
C 0.1072 -0.3657 -1.5309
C -1.2733 -0.4740 -1.7085
C -1.7852 -0.8221 -2.9683
C -0.9243 -1.0576 -4.0488
C 0.4524 -0.9132 -3.8859
C 0.9653 -0.5616 -2.6358
C 0.4959 -1.5425 0.8458
C 0.8682 -2.8064 0.3646
C 0.4963 -3.9680 1.0702
C -0.2370 -3.8784 2.2596
C -0.6062 -2.6293 2.7506
C -0.2474 -1.4721 2.0496
C 0.2764 1.6713 0.5814
C -0.5874 2.4693 -0.2041
C -1.1510 3.6465 0.3196
C -0.8638 4.0468 1.6251
C 0.0025 3.2822 2.4064
C 0.5701 2.1063 1.8896
Ag 3.3726 0.0374 0.0309
N 5.4726 0.0374 0.0309
C 6.1696 1.1432 0.4124
N 5.4645 2.3029 0.8709
C 6.0953 3.2399 1.7896
C 4.0997 2.5839 0.4374
C 7.5811 1.1116 0.3386
C 8.2236 -0.0287 -0.1558
C 7.4726 -1.1355 -0.5436
C 6.0852 -1.0857 -0.4290
H -1.9424 -0.2890 -0.8824
H -2.8514 -0.9173 -3.1084
H -1.3219 -1.3469 -5.0139
H 1.1213 -1.0803 -4.7247
H 2.0412 -0.4522 -2.5325
H 1.4347 -2.8956 -0.5492
H 0.7755 -4.9452 0.7008
H -0.5197 -4.7737 2.8046
H -1.1705 -2.5598 3.6761
H -0.5522 -0.5195 2.4649
H -0.8599 2.1877 -1.2090
H -1.8294 4.2449 -0.2779
H -1.3182 4.9450 2.0330
H 0.2165 3.5949 3.4220
H 1.2150 1.5193 2.5288
H 6.7979 2.7107 2.4707
H 5.3311 3.6747 2.4659
H 6.5866 4.0743 1.2427
H 3.7343 1.9559 -0.3738
H 4.1105 3.6024 -0.0251
H 3.4165 2.6021 1.2995
H 8.1857 1.9643 0.6176
H 9.3025 -0.0533 -0.2504
H 7.9583 -2.0183 -0.9412
H 5.4841 -1.9293 -0.7427
