39
 
P 1.1566 0.5818 0.3235
F -0.3591 0.6021 -0.3649
F 0.7444 -0.4794 1.5661
F 1.1504 2.2244 0.6892
Au 3.5244 0.3203 0.3186
P 5.8651 -0.0561 0.1149
O 6.8814 -1.1551 -0.7124
C 6.2959 -1.3228 -2.0228
C 6.9238 -2.4865 -2.8067
C 4.7452 -1.5507 -2.0982
O 6.2664 1.2993 -0.8697
C 5.9010 2.5327 -0.2655
C 6.4310 3.6804 -1.1394
C 4.3814 2.6729 -0.1845
O 6.4892 -0.2241 1.6950
C 5.8762 -1.2945 2.3657
C 6.2179 -2.6411 1.7128
C 6.4241 -1.3169 3.7962
H 6.5399 -0.4024 -2.5830
H 6.6420 -3.4803 -2.3896
H 8.0239 -2.3997 -2.8590
H 6.5412 -2.4547 -3.8544
H 4.4395 -2.5231 -1.6545
H 4.4244 -1.5136 -3.1587
H 4.1455 -0.7515 -1.6240
H 6.3548 2.6612 0.7491
H 6.0361 3.5786 -2.1719
H 7.5399 3.6769 -1.1844
H 6.1139 4.6704 -0.7332
H 3.8878 2.3577 -1.1282
H 4.0838 3.6765 0.1838
H 4.0353 2.0843 0.6313
H 4.7713 -1.1381 2.4180
H 7.3233 -2.7493 1.6213
H 5.7506 -2.7315 0.7147
H 5.8031 -3.4695 2.3124
H 7.5295 -1.4576 3.7902
H 5.9651 -2.1595 4.3535
H 6.1938 -0.3707 4.3300
