38
 
P 1.2761 0.0596 -0.0596
F -0.2558 -0.3125 0.4838
F 0.9830 1.7177 -0.0971
F 1.0403 -0.7178 -1.5416
Au 3.7052 0.0606 -0.0004
C 5.7315 0.0339 0.0315
N 6.4843 1.1282 0.0398
C 5.9689 2.4972 0.0545
C 4.4088 2.4856 0.0483
C 6.4833 3.1920 1.3246
C 6.4761 3.2316 -1.1962
C 7.7611 0.6867 0.0363
C 7.7377 -0.6936 0.0321
N 6.4491 -1.0883 0.0321
C 5.9058 -2.4458 0.0383
C 6.4178 -3.1651 1.2990
C 4.3453 -2.3905 0.0357
C 6.4050 -3.1895 -1.2132
H 4.0024 1.9456 0.9188
H 4.0245 1.9883 -0.8582
H 4.0295 3.5271 0.0664
H 6.1310 2.6463 2.2284
H 6.1299 4.2421 1.3676
H 7.5954 3.1983 1.3388
H 6.1124 2.7152 -2.1105
H 7.5872 3.2398 -1.2224
H 6.1164 4.2817 -1.2121
H 8.6422 1.3093 0.0376
H 8.5905 -1.3562 0.0303
H 6.0808 -2.6307 2.2125
H 7.5313 -3.1860 1.3085
H 6.0530 -4.2122 1.3341
H 3.9549 -1.8387 0.9067
H 3.9425 -3.4232 0.0552
H 3.9692 -1.8779 -0.8671
H 7.5177 -3.2037 -1.2483
H 6.0399 -2.6816 -2.1301
H 6.0465 -4.2402 -1.2173
