20
 
P 1.1302 -0.0714 -0.0301
Cl -0.5034 -0.9517 0.8570
Cl 0.6037 1.9201 0.3095
Cl 0.7608 -0.7684 -1.9706
Au 3.5159 0.0226 -0.0743
N 5.5246 0.0536 -0.0706
C 6.1645 1.2435 -0.1082
C 7.5628 1.2945 -0.2770
O 8.2266 2.4679 -0.4244
C 7.6144 3.7036 -0.4150
C 8.2779 0.0934 -0.3371
C 7.6034 -1.1239 -0.2318
C 6.2092 -1.1240 -0.1153
H 5.5682 2.1403 -0.0481
H 8.3559 4.4960 -0.6332
H 7.1692 3.8806 0.5859
H 6.8203 3.7440 -1.1947
H 9.3529 0.1024 -0.4790
H 8.1549 -2.0554 -0.2745
H 5.6718 -2.0635 -0.0844
