58
 
P 0.9464 -0.0707 0.0461
C 0.2934 -1.7354 -0.2518
C 1.1027 -2.8689 0.0631
C 2.4111 -2.7859 0.8114
C 0.7061 -4.1449 -0.3603
C -0.4628 -4.3152 -1.0952
C -1.2655 -3.2134 -1.3954
C -0.8914 -1.9275 -0.9803
C 0.4291 0.0774 1.8119
C 1.2633 0.4367 2.9282
C 2.7490 0.6640 2.8863
C 0.6748 0.6413 4.1956
C -0.6900 0.4754 4.3938
C -1.5071 0.1528 3.3197
C -0.9600 -0.0189 2.0457
C 0.5631 1.1050 -1.3196
C 0.9920 0.9877 -2.6761
C 1.8978 -0.0910 -3.1822
C 0.5880 1.9530 -3.6246
C -0.1857 3.0478 -3.2511
C -0.5820 3.1909 -1.9268
C -0.2225 2.2274 -0.9757
Au 3.4064 -0.0707 0.0461
N 5.5064 -0.0707 0.0461
C 6.1361 0.8333 -0.7484
C 7.5235 0.8072 -0.8840
C 8.2594 -0.1832 -0.2210
C 9.7410 -0.2981 -0.4333
C 7.5888 -1.0898 0.6157
C 6.1971 -1.0053 0.7501
H 2.6736 -1.7748 1.1029
H 3.2398 -3.1995 0.1968
H 2.3368 -3.3516 1.7612
H 1.3263 -5.0088 -0.1449
H -0.7354 -5.3043 -1.4432
H -2.1648 -3.3588 -1.9788
H -1.5074 -1.0845 -1.2612
H 3.2382 0.1755 2.0396
H 3.2013 0.1909 3.7835
H 2.9865 1.7525 2.9534
H 1.2815 0.9260 5.0497
H -1.1141 0.6111 5.3822
H -2.5733 0.0491 3.4748
H -1.6399 -0.2223 1.2302
H 2.3366 -0.6887 -2.3634
H 2.7385 0.3914 -3.7318
H 1.3505 -0.7407 -3.8975
H 0.8973 1.8746 -4.6615
H -0.4659 3.7930 -3.9887
H -1.1720 4.0535 -1.6402
H -0.5599 2.3717 0.0418
H 5.5517 1.5672 -1.2875
H 8.0112 1.5293 -1.5270
H 10.1140 0.4846 -1.1291
H 9.9626 -1.2871 -0.8899
H 10.2845 -0.2099 0.5287
H 8.1344 -1.8692 1.1333
H 5.6626 -1.7226 1.3589
