91
 
P 0.9510 -0.0420 -0.0764
C 0.2417 -0.5596 1.5444
C 1.1095 -0.8133 2.6781
C 2.5971 -0.5363 2.7303
C 0.5704 -1.2889 3.8815
C -0.7984 -1.4623 4.0212
C -1.6519 -1.0865 2.9871
C -1.1408 -0.6205 1.7714
C 0.2826 1.6796 -0.3913
C 0.0867 2.7580 0.5542
C 0.3047 2.7150 2.0409
C -0.4206 3.9993 0.1124
C -0.7960 4.2004 -1.2052
C -0.6450 3.1729 -2.1242
C -0.1022 1.9404 -1.7299
C 0.4922 -1.3998 -1.2617
C 1.2420 -1.7092 -2.4538
C 2.5097 -1.0339 -2.8948
C 0.7556 -2.6604 -3.3732
C -0.4900 -3.2448 -3.2069
C -1.2664 -2.8985 -2.1143
C -0.7828 -2.0017 -1.1612
Au 3.4110 -0.0420 -0.0764
C 5.5610 -0.0420 -0.0764
N 6.2850 1.1498 -0.1176
C 5.8820 2.6154 -0.1239
C 4.5085 3.0768 -0.0507
C 3.3584 2.2767 0.1417
C 4.1139 4.3877 -0.0551
C 5.0265 5.3822 -0.0839
C 4.5050 6.7735 -0.0323
C 6.3807 5.0620 -0.1218
C 6.8314 3.7155 -0.1464
C 8.3255 3.5701 -0.1555
C 7.5572 0.6998 -0.0836
C 7.6174 -0.6448 -0.0236
N 6.3923 -1.1969 -0.0598
C 6.1137 -2.7074 -0.1162
C 7.0438 -3.8140 -0.1859
C 8.5252 -3.7597 -0.3258
C 6.5632 -5.1674 -0.1578
C 5.1987 -5.4713 -0.1052
C 4.6129 -6.8333 -0.0361
C 4.3152 -4.4604 -0.1215
C 4.7865 -3.1841 -0.1305
C 3.8296 -2.2876 -0.1168
H 2.9527 -0.0493 1.8446
H 3.1931 -1.4476 2.9322
H 2.8361 0.2061 3.5289
H 1.2171 -1.5118 4.7267
H -1.1982 -1.8471 4.9508
H -2.7195 -1.1606 3.1294
H -1.8352 -0.3008 1.0119
H 0.4960 1.7207 2.4384
H -0.6278 3.0744 2.5328
H 1.1227 3.4024 2.3451
H -0.5663 4.8191 0.8102
H -1.2221 5.1534 -1.5032
H -0.9560 3.3396 -3.1485
H 0.0069 1.1812 -2.4921
H 2.7747 -0.1681 -2.2618
H 2.3864 -0.6510 -3.9314
H 3.3278 -1.7811 -2.9638
H 1.3234 -2.9120 -4.2633
H -0.8690 -3.9356 -3.9501
H -2.2615 -3.3135 -2.0133
H -1.4595 -1.7749 -0.3771
H 3.8712 1.5493 0.6540
H 2.8775 2.0511 -0.8369
H 2.6812 2.4966 0.9791
H 3.0514 4.6373 0.0037
H 3.3883 6.7899 0.0025
H 4.8227 7.3039 -0.9459
H 4.8707 7.2519 0.8952
H 7.0893 5.8775 -0.1173
H 8.8687 4.5340 -0.1541
H 8.6414 3.0450 -1.0823
H 8.6420 3.0689 0.7860
H 8.4805 1.2127 -0.0827
H 8.5752 -1.0705 0.0433
H 9.0003 -2.8260 -0.5284
H 8.7870 -4.3250 -1.2411
H 8.9813 -4.2126 0.5753
H 7.2549 -5.9931 -0.1850
H 5.4031 -7.5979 -0.0511
H 3.9083 -6.9725 -0.8881
H 4.0267 -6.9033 0.9103
H 3.2368 -4.6560 -0.1089
H 2.7573 -2.3511 -0.0171
H 4.0121 -1.6882 -1.0016
H 4.0782 -1.8537 0.8763
