111
 
P 0.9333 0.0479 -0.0571
C 0.1586 0.1884 -1.6830
C -0.9912 -0.4627 -2.1129
C -1.3836 -0.3551 -3.4616
C -2.5529 -1.1215 -3.9592
C -0.6488 0.4361 -4.3632
C 0.4751 1.1168 -3.9230
C 0.8643 0.9778 -2.5979
C 0.2742 -1.7037 0.3146
C 0.8001 -2.8977 -0.1863
C 0.5044 -4.1773 0.2413
C 1.3618 -5.3286 -0.2711
C -0.5452 -4.3407 1.1226
C -1.2394 -3.2023 1.5719
C -0.8108 -1.8950 1.2072
C 0.1364 1.3392 0.9858
C -0.8452 2.2002 0.4693
C -1.5871 3.0566 1.3046
C -2.6838 3.9041 0.7181
C -1.3310 3.0782 2.6841
C -0.3462 2.2421 3.2199
C 0.3795 1.3732 2.3817
Au 3.3933 0.0479 -0.0571
C 5.5433 0.0479 -0.0571
N 6.3354 -1.0640 -0.2005
C 5.9958 -2.5762 -0.1220
C 6.7725 -3.7489 -0.5821
C 8.0982 -3.6716 -1.3101
C 8.6604 -5.0456 -1.7824
C 7.8957 -2.8563 -2.5695
C 6.2214 -5.0883 -0.4631
C 5.0295 -5.3666 0.1351
C 4.3150 -4.3370 0.6000
C 4.7456 -3.0292 0.4026
C 3.6950 -2.1267 0.4538
C 3.9903 -1.2985 1.7857
C 3.5092 -2.1515 -1.2192
C 7.7134 -0.5678 -0.0811
C 7.6252 0.9062 -0.3974
N 6.2904 1.2558 0.0300
C 5.8504 2.5249 0.5494
C 4.6185 3.1994 0.1308
C 3.6437 2.8041 -1.0276
C 2.9169 4.0325 -1.6709
C 4.2992 2.0911 -2.2318
C 4.2599 4.3680 0.8462
C 5.0108 4.8647 1.8847
C 6.1963 4.2719 2.2354
C 6.6637 3.1351 1.5812
C 8.0381 2.6031 2.0235
C 9.1676 3.3515 1.2337
C 8.3573 2.6476 3.5123
H -1.5523 -1.0703 -1.4233
H -3.0302 -1.6874 -3.1336
H -2.1814 -1.8439 -4.7158
H -3.2903 -0.4347 -4.4197
H -0.9376 0.5196 -5.4040
H 1.0581 1.7295 -4.6062
H 1.7324 1.4788 -2.2757
H 1.5006 -2.9341 -0.8858
H 2.2390 -4.9617 -0.8613
H 0.8038 -5.9627 -0.9632
H 1.7858 -5.9405 0.5642
H -0.8108 -5.3437 1.4325
H -2.0901 -3.3427 2.2226
H -1.3435 -1.0413 1.6068
H -1.0789 2.1838 -0.5797
H -2.8114 3.6931 -0.3651
H -2.4604 4.9838 0.8387
H -3.6514 3.6701 1.2130
H -1.9106 3.7198 3.3446
H -0.1726 2.2490 4.2931
H 1.1019 0.7066 2.8383
H 8.8323 -3.2061 -0.6250
H 7.9447 -5.5498 -2.4816
H 8.8496 -5.7192 -0.9171
H 9.5957 -4.9264 -2.3547
H 7.1664 -3.3829 -3.2232
H 8.8643 -2.7391 -3.0920
H 7.4954 -1.8630 -2.3326
H 6.6620 -5.9936 -0.8359
H 4.6202 -6.3727 0.1882
H 3.3539 -4.5403 1.0347
H 2.7784 -2.5226 0.8821
H 5.0335 -0.9760 1.9604
H 3.8646 -1.9616 2.6732
H 3.3185 -0.4303 1.9556
H 4.2338 -1.3792 -1.4096
H 2.6645 -1.4665 -1.4536
H 3.8698 -2.2715 -2.2445
H 8.5359 -0.9535 -0.7040
H 8.0095 -0.6545 0.9967
H 7.7488 1.1983 -1.4602
H 8.4964 1.3706 0.0072
H 2.8665 2.1633 -0.5658
H 3.6679 4.7699 -2.0357
H 2.2077 4.5371 -0.9869
H 2.2791 3.7475 -2.5355
H 5.0519 2.7487 -2.6979
H 3.6009 1.8339 -3.0569
H 4.7075 1.1240 -1.9678
H 3.3781 4.9450 0.6430
H 4.6714 5.7407 2.4167
H 6.7497 4.7113 3.0450
H 8.0213 1.5050 1.9377
H 9.1437 4.4380 1.4427
H 9.0967 3.3096 0.1222
H 10.1663 2.9402 1.4967
H 8.5003 3.6817 3.8711
H 9.3180 2.1049 3.6821
H 7.5587 2.1231 4.0768
