55
 
P 0.9404 0.0584 -0.0550
C 0.1847 1.1784 1.3791
C -1.3514 1.2231 1.4627
C 0.6229 0.8153 2.8388
C 0.7142 2.6257 1.2268
C 0.4672 0.9577 -1.7975
C 1.1622 2.3241 -1.9487
C 0.8457 0.2873 -3.1734
C -1.0682 1.1138 -1.9924
C 0.4781 -1.7309 0.2832
C 1.0137 -2.8645 -0.7003
C 2.5586 -2.8115 -0.7039
C 0.5373 -4.2558 -0.2269
C 0.5169 -2.7920 -2.1522
Au 3.4004 0.0584 -0.0550
N 5.5004 0.0584 -0.0550
C 6.1428 1.2308 -0.3032
C 7.5351 1.2590 -0.4117
F 8.1782 2.4225 -0.6782
C 8.2545 0.0715 -0.2628
C 7.5762 -1.1221 -0.0021
C 6.1810 -1.1089 0.0971
H -1.7673 0.2477 1.7698
H -1.8505 1.5416 0.5685
H -1.6667 2.0055 2.1936
H 0.3491 -0.2107 3.1424
H 0.0745 1.4848 3.5598
H 1.6890 1.0291 3.0702
H 0.1441 3.1629 0.4754
H 1.8197 2.6329 1.0538
H 0.5213 3.2696 2.1121
H 2.2518 2.2063 -1.7803
H 0.7627 3.1269 -1.3562
H 0.9974 2.7608 -2.9587
H 1.9313 0.1388 -3.3428
H 0.5293 0.9408 -4.0262
H 0.1934 -0.5475 -3.4889
H -1.5407 1.8189 -1.3256
H -1.5790 0.1203 -1.9823
H -1.3164 1.5913 -2.9667
H -0.6321 -1.7913 0.3117
H 0.8584 -1.9769 1.2937
H 2.9403 -2.9774 0.3138
H 2.9510 -1.8249 -1.0241
H 2.9548 -3.6008 -1.3863
H 0.8483 -4.4418 0.8151
H 0.9749 -5.0588 -0.8698
H -0.5705 -4.3574 -0.3079
H 1.0940 -2.0196 -2.6078
H -0.5933 -2.6989 -2.2476
H 0.8205 -3.6703 -2.7688
H 5.5663 2.1367 -0.4378
H 9.3329 0.0744 -0.3578
H 8.1251 -2.0485 0.1061
H 5.6384 -2.0279 0.2736
