32
 
P 0.9386 0.0513 -0.0600
C -0.0316 -0.0667 -1.5969
C 0.5134 -1.6377 0.4588
C 0.4163 1.5877 0.6726
C -0.9548 1.8130 0.8785
C -1.3888 2.9748 1.5150
C -0.4538 3.9146 1.9532
C 0.9180 3.6900 1.7518
C 1.3606 2.5203 1.1079
Au 3.3986 0.0513 -0.0600
N 5.4986 0.0513 -0.0600
C 6.1419 1.1816 0.3333
F 5.4197 2.2657 0.7079
C 7.5379 1.2249 0.3476
C 8.2580 0.0936 -0.0440
F 9.6136 0.1154 -0.0357
C 7.5765 -1.0598 -0.4438
C 6.1779 -1.0604 -0.4464
F 5.4941 -2.1661 -0.8287
H -1.1229 -0.0994 -1.4429
H 0.3141 -0.9541 -2.1724
H 0.2364 0.8216 -2.2145
H -0.5980 -1.7171 0.4997
H 0.8754 -1.7727 1.5010
H 0.9311 -2.4183 -0.2004
H -1.6892 1.0813 0.5635
H -2.4483 3.1376 1.6778
H -0.7970 4.8107 2.4555
H 1.6308 4.4208 2.1073
H 2.4265 2.3108 0.9556
H 8.0543 2.1240 0.6589
H 8.1259 -1.9411 -0.7485
