55
 
P 1.0928 -0.0362 0.0090
C 0.3394 -0.3419 1.8056
C -1.1964 -0.3825 1.8985
C 0.7811 -1.6620 2.5256
C 0.8654 0.7505 2.7683
C 0.6028 1.8498 -0.5107
C 1.2882 2.8890 0.3939
C 0.9695 2.4225 -1.9342
C -0.9344 2.0781 -0.5255
C 0.6288 -1.4894 -1.0890
C 1.1635 -1.5209 -2.5898
C 2.7085 -1.4871 -2.5503
C 0.6853 -2.8025 -3.3060
C 0.6716 -0.3942 -3.5081
Au 3.5528 -0.0362 0.0090
N 5.6528 -0.0362 0.0090
C 6.3370 -1.0466 0.6104
F 5.6627 -2.0904 1.1504
C 7.7328 -0.9936 0.6942
C 8.4086 0.1058 0.1590
C 7.6876 1.1286 -0.4590
C 6.2955 1.0377 -0.5242
H -1.6077 -1.2646 1.3776
H -1.7062 0.4910 1.5474
H -1.5095 -0.4012 2.9692
H 0.5105 -2.5797 1.9739
H 0.2302 -1.7430 3.5052
H 1.8452 -1.6861 2.8462
H 0.2918 1.6638 2.6548
H 1.9706 0.8875 2.6567
H 0.6709 0.5368 3.8413
H 2.3795 2.6934 0.4200
H 0.8867 2.9896 1.3842
H 1.1122 3.9272 0.0357
H 2.0543 2.4651 -2.1599
H 0.6334 3.4866 -2.0249
H 0.3224 2.0870 -2.7659
H -1.4032 2.0437 0.4421
H -1.4369 1.3998 -1.2578
H -1.1984 3.1197 -0.8126
H -0.4815 -1.5512 -1.1132
H 1.0097 -2.4034 -0.5940
H 3.0821 -2.3529 -1.9883
H 3.1092 -0.5988 -2.0157
H 3.1049 -1.5157 -3.5949
H 0.9973 -3.6976 -2.7424
H 1.1243 -2.8640 -4.3324
H -0.4227 -2.8101 -3.4364
H 1.2542 0.4527 -3.2285
H -0.4388 -0.2579 -3.5059
H 0.9808 -0.5175 -4.5726
H 8.2851 -1.7867 1.1811
H 9.4870 0.1697 0.2294
H 8.1998 1.9892 -0.8701
H 5.7216 1.8329 -0.9812
