73
 
P 0.9157 -0.0446 -0.0300
C 0.4391 -1.0370 1.5596
C -0.8947 -1.2216 2.1277
C -2.2075 -0.8497 1.5079
C -1.0974 -1.9366 3.3188
C -0.0720 -2.5740 3.9792
C -0.3489 -3.3219 5.2565
C 1.1868 -2.5682 3.4067
C 1.4673 -1.8467 2.2188
C 2.8646 -2.1120 1.6744
C 0.2874 1.6123 0.3512
C 0.8614 2.3928 1.3876
C 1.9837 1.9108 2.2762
C 0.3683 3.6848 1.6297
C -0.6973 4.2052 0.8907
C -1.2225 5.5845 1.1405
C -1.3002 3.4294 -0.0881
C -0.8416 2.1446 -0.3841
C -1.6500 1.4303 -1.4726
C 0.4184 -0.7248 -1.7519
C -0.3427 -1.9454 -1.8977
C -0.8666 -2.8080 -0.8223
C -0.7327 -2.4496 -3.1341
C -0.4608 -1.7958 -4.3029
C -0.9504 -2.4236 -5.5843
C 0.2312 -0.5817 -4.2430
C 0.6878 -0.0365 -2.9998
C 1.3735 1.3135 -3.0710
Au 3.3757 -0.0446 -0.0300
N 5.4757 -0.0446 -0.0300
C 6.1206 0.2722 -1.1850
C 7.5145 0.1722 -1.2630
Cl 8.3487 0.5170 -2.7664
C 8.2339 -0.2390 -0.1381
C 7.5571 -0.5373 1.0441
C 6.1652 -0.4353 1.0791
H -2.0840 -0.4471 0.5296
H -2.8150 -0.1937 2.1563
H -2.7984 -1.7928 1.3489
H -2.0986 -2.0395 3.7251
H -1.4075 -3.2003 5.5766
H 0.2927 -2.9320 6.0753
H -0.1545 -4.4043 5.1142
H 1.9570 -3.1542 3.9027
H 3.3532 -2.9588 2.2200
H 3.5710 -1.3042 1.8288
H 2.8168 -2.4960 0.6311
H 2.3450 0.8908 2.0449
H 1.6160 1.9025 3.3255
H 2.8528 2.5965 2.2105
H 0.8156 4.2901 2.4074
H -0.6417 6.1005 1.9310
H -2.2850 5.5202 1.4562
H -1.1589 6.1829 0.2055
H -2.1385 3.8432 -0.6398
H -2.5986 1.9487 -1.7117
H -1.9379 0.4108 -1.2269
H -1.1732 1.3850 -2.4462
H -0.6478 -2.4141 0.1042
H -0.4154 -3.8152 -0.8656
H -1.9785 -2.8555 -0.8979
H -1.2998 -3.3779 -3.1802
H -1.4486 -3.4064 -5.3966
H -0.0928 -2.6245 -6.2544
H -1.6996 -1.7748 -6.0804
H 0.3959 -0.0582 -5.1786
H 1.4330 1.6775 -4.1240
H 2.3858 1.2621 -2.6348
H 0.8101 2.1066 -2.5422
H 5.5442 0.5714 -2.0507
H 9.3112 -0.3370 -0.1802
H 8.1027 -0.8642 1.9202
H 5.6462 -0.6968 1.9869
