32
 
P 1.0296 0.0954 -0.0050
C 0.0673 1.6091 0.2864
C 0.5948 0.0101 -1.7659
C 0.5617 -1.1242 1.2059
C -0.7865 -1.5011 1.2996
C -1.1833 -2.4764 2.2141
C -0.2337 -3.0752 3.0446
C 1.1191 -2.7098 2.9448
C 1.5268 -1.7360 2.0125
Au 3.4896 0.0954 -0.0050
N 5.5896 0.0954 -0.0050
C 6.2291 0.9961 -0.7977
C 7.6213 0.9777 -0.9009
C 8.3437 0.0176 -0.1896
F 9.6940 -0.0349 -0.3002
C 7.6689 -0.8951 0.6265
C 6.2737 -0.8347 0.7131
H -1.0247 1.4793 0.2308
H 0.4261 2.4036 -0.4058
H 0.3501 1.9553 1.3088
H -0.5169 -0.0438 -1.8388
H 0.9747 -0.9603 -2.1544
H 0.9828 0.8488 -2.3667
H -1.5288 -1.0506 0.6516
H -2.2258 -2.7680 2.2741
H -0.5507 -3.8282 3.7567
H 1.8428 -3.1916 3.5881
H 2.5806 -1.4480 1.8952
H 5.6505 1.7170 -1.3603
H 8.1308 1.6889 -1.5386
H 8.2193 -1.6502 1.1725
H 5.7335 -1.5490 1.3201
