54
 
P 0.9257 0.0629 0.0228
C 0.1101 0.1773 -1.5838
C -1.2714 0.1583 -1.7903
C -1.7823 0.1842 -3.0948
C -0.9202 0.2267 -4.1978
Cl -1.5671 0.1712 -5.8276
C 0.4588 0.2921 -3.9989
C 0.9703 0.2759 -2.6998
C 0.4808 -1.6591 0.3139
C 0.7874 -2.7097 -0.5550
C 0.3902 -4.0177 -0.2319
C -0.2982 -4.2805 0.9615
Cl -0.7818 -5.9177 1.3692
C -0.6003 -3.2349 1.8333
C -0.2193 -1.9328 1.5081
C 0.4388 1.4267 1.0958
C -0.9251 1.6498 1.3744
C -1.3235 2.6807 2.2250
C -0.3630 3.4906 2.8294
Cl -0.8798 4.8020 3.8785
C 1.0016 3.2476 2.5980
C 1.4088 2.2130 1.7287
Au 3.3857 0.0629 0.0228
N 5.4857 0.0629 0.0228
C 6.3204 0.9788 0.5322
N 7.6101 0.6272 0.3143
C 8.7977 1.3902 0.6252
C 8.7057 2.6701 1.2110
C 9.8539 3.4383 1.4220
C 11.1068 2.9418 1.0602
C 11.2170 1.6696 0.5007
C 10.0754 0.8980 0.2855
C 7.5567 -0.5683 -0.3219
C 6.2403 -0.9061 -0.5097
H -1.9548 0.1045 -0.9648
H -2.8507 0.1496 -3.2481
H 1.1341 0.3362 -4.8477
H 2.0481 0.3150 -2.5708
H 1.3190 -2.5165 -1.4746
H 0.6187 -4.8299 -0.9065
H -1.1282 -3.4282 2.7619
H -0.4682 -1.1387 2.2036
H -1.6951 1.0277 0.9512
H -2.3799 2.8450 2.4150
H 1.7370 3.8650 3.0953
H 2.4691 1.9981 1.5436
H 5.9798 1.8808 1.0197
H 7.7536 3.0975 1.4887
H 9.7690 4.4269 1.8536
H 11.9928 3.5437 1.2089
H 12.1867 1.2820 0.2175
H 10.2068 -0.0731 -0.1659
H 8.3962 -1.1593 -0.6554
H 5.8552 -1.7910 -0.9982
