37
 
P 1.0758 -0.0412 0.0506
C 0.3359 -1.7257 0.2412
C -1.1812 -1.8196 0.2860
C 0.9017 -2.6302 -0.8658
C 0.5250 0.9668 1.4845
C 1.0084 0.4464 2.8327
C 0.9636 2.4241 1.2832
C 0.5937 0.4743 -1.6272
Au 3.5358 -0.0412 0.0506
N 5.6358 -0.0412 0.0506
C 6.3188 -0.6494 -0.9557
F 5.6415 -1.1951 -1.9946
C 7.7150 -0.7333 -0.9020
C 8.3908 -0.1924 0.1950
C 7.6697 0.4325 1.2139
C 6.2775 0.4988 1.1214
H 0.7258 -2.1402 1.1972
H -1.6327 -1.3915 -0.6280
H -1.5711 -1.3226 1.1959
H -1.4648 -2.8964 0.3509
H 0.5369 -2.3192 -1.8646
H 0.5961 -3.6853 -0.7044
H 2.0155 -2.5974 -0.8639
H -0.5864 0.9465 1.4797
H 2.1085 0.5551 2.9297
H 0.7161 -0.6123 2.9688
H 0.5192 1.0369 3.6403
H 2.0717 2.5007 1.2406
H 0.5902 3.0623 2.1131
H 0.5440 2.8309 0.3369
H -0.5172 0.5031 -1.6754
H 0.9924 -0.1860 -2.4159
H 0.9572 1.5092 -1.7958
H 8.2681 -1.2246 -1.6920
H 9.4692 -0.2635 0.2603
H 8.1821 0.8479 2.0723
H 5.7015 0.9612 1.9121
