80
 
P 1.0576 -0.0462 -0.0674
C 0.2867 1.5680 0.0349
C -1.0777 1.8355 -0.0374
C -1.5254 3.1569 0.1103
C -0.6149 4.2159 0.3419
O -1.0145 5.5064 0.4774
C -2.3115 5.9451 0.3162
C 0.7467 3.9282 0.4409
C 1.1870 2.6185 0.2896
C 0.6111 -0.5124 -1.7366
C 0.9829 0.2285 -2.8444
C 0.5764 -0.1753 -4.1128
C -0.2076 -1.3352 -4.2983
O -0.6432 -1.7109 -5.5292
C -0.4600 -0.9525 -6.6698
C -0.5508 -2.1073 -3.1815
C -0.1433 -1.6978 -1.9071
C 0.6635 -1.0752 1.3524
C -0.1661 -0.6010 2.3677
C -0.4389 -1.3925 3.4779
C 0.1155 -2.6812 3.6001
O -0.0971 -3.4471 4.7025
C -0.7977 -3.0246 5.8173
C 0.9140 -3.1768 2.5587
C 1.1784 -2.3803 1.4363
Au 3.5176 -0.0462 -0.0674
C 5.6676 -0.0462 -0.0674
N 6.4204 0.7036 -0.8742
C 5.8933 1.6560 -1.8536
C 4.3190 1.6142 -1.8179
C 6.4102 3.0639 -1.4884
C 6.4185 1.2905 -3.2575
C 7.7020 0.3994 -0.5640
C 7.6850 -0.5455 0.4467
N 6.3946 -0.8106 0.7485
C 5.8428 -1.7249 1.7515
C 6.3850 -1.3159 3.1369
C 4.2761 -1.6518 1.7271
C 6.2996 -3.1613 1.4246
H -1.7869 1.0377 -0.1955
H -2.5846 3.3476 0.0503
H -2.3623 7.0383 0.4907
H -2.9763 5.4380 1.0464
H -2.6528 5.7316 -0.7201
H 1.4714 4.7134 0.6383
H 2.2444 2.4226 0.3957
H 1.5762 1.1196 -2.7290
H 0.8747 0.4357 -4.9467
H -0.9036 -1.4611 -7.5470
H 0.6253 -0.8078 -6.8563
H -0.9513 0.0390 -6.5442
H -1.1428 -3.0134 -3.2936
H -0.4295 -2.3083 -1.0551
H -0.6062 0.3821 2.3143
H -1.0774 -0.9815 4.2443
H -0.8052 -3.8208 6.5870
H -1.8465 -2.7879 5.5381
H -0.3152 -2.1195 6.2505
H 1.3420 -4.1721 2.6205
H 1.7966 -2.7797 0.6418
H 3.9394 1.8502 -0.8220
H 3.9183 0.6192 -2.0612
H 3.9167 2.3606 -2.5321
H 6.0684 3.3552 -0.4733
H 6.0592 3.8215 -2.2198
H 7.5249 3.0880 -1.4881
H 6.0899 0.2725 -3.5505
H 7.5326 1.3095 -3.2798
H 6.0595 2.0183 -4.0163
H 8.5823 0.8281 -1.0254
H 8.5459 -0.9951 0.9252
H 6.0824 -0.2761 3.3828
H 7.4981 -1.3552 3.1513
H 6.0150 -1.9965 3.9318
H 3.8891 -0.6387 1.9157
H 3.8651 -2.3308 2.5014
H 3.8908 -1.9597 0.7444
H 7.4094 -3.2310 1.3850
H 5.9068 -3.4754 0.4339
H 5.9387 -3.8770 2.1931
