45
 
P 0.7752 -0.4010 -0.0845
Cl 0.0740 -2.2531 -0.6366
Cl 0.1348 -0.3501 1.9115
Cl 0.1881 0.6891 -1.7703
Au 3.1548 -0.1299 0.0245
P 5.6088 0.0038 0.1547
C 6.4113 1.4865 -0.5278
C 7.6133 1.9122 0.0096
C 8.1331 3.1614 -0.3166
C 7.4734 4.0048 -1.2083
C 6.2973 3.5805 -1.8229
C 5.7496 2.3277 -1.4859
C 5.9894 -0.0650 2.0270
C 6.8220 -1.1045 2.5585
C 6.9936 -1.3014 3.9491
C 6.3387 -0.4826 4.8618
C 5.5939 0.5941 4.3848
C 5.4436 0.8254 2.9945
C 6.2435 -1.4088 -1.0012
C 5.6694 -2.8079 -0.6036
C 4.1658 -2.8132 -0.8798
C 3.7978 -2.4910 -2.3360
C 4.4399 -1.1629 -2.7480
C 5.9566 -1.2174 -2.5061
H 8.1271 1.3011 0.7271
H 9.0403 3.4857 0.1596
H 7.8769 4.9901 -1.4071
H 5.8039 4.2492 -2.5255
H 4.8020 2.0767 -1.9615
H 7.3388 -1.8059 1.9225
H 7.6084 -2.1152 4.3291
H 6.4120 -0.6769 5.9348
H 5.1038 1.2392 5.1057
H 4.8532 1.6789 2.7188
H 7.3531 -1.4725 -0.9001
H 5.8372 -2.9906 0.4786
H 6.1489 -3.6644 -1.1512
H 3.8035 -1.9963 -0.2857
H 3.6556 -3.7277 -0.5167
H 2.6990 -2.3583 -2.4100
H 4.0893 -3.3280 -3.0147
H 3.9626 -0.3543 -2.1221
H 4.2458 -0.9785 -3.8305
H 6.4652 -0.3084 -2.8841
H 6.3844 -2.0851 -3.0789
