16
 
P 1.2425 -0.1320 0.3908
Cl -0.2784 0.2440 1.7285
Cl 0.6418 1.2738 -1.0297
Cl 0.7565 -2.1280 0.0196
Au 3.5975 -0.1156 -0.0187
N 5.6051 -0.1151 -0.1089
C 6.2731 1.0728 -0.1467
Cl 5.3725 2.5757 -0.1005
C 7.6719 1.0909 -0.2334
C 8.3637 -0.1198 -0.2935
C 7.6603 -1.3234 -0.2238
C 6.2677 -1.2995 -0.1137
H 8.2193 2.0260 -0.2696
H 9.4420 -0.1274 -0.3933
H 8.1885 -2.2657 -0.2633
H 5.7083 -2.2211 -0.0450
