46
 
P 1.0353 0.0802 -0.0483
C 0.8093 -1.5664 -0.7749
C 0.0256 -1.7845 -1.9192
C -0.1319 -3.0780 -2.4335
C 0.4937 -4.1639 -1.8159
C 1.2657 -3.9616 -0.6707
C 1.4199 -2.6705 -0.1486
C 0.4790 0.5350 1.6113
C -0.1728 -0.4795 2.3474
C -0.6951 -0.2263 3.6153
C -0.5759 1.0471 4.1664
C 0.0795 2.0590 3.4527
C 0.6150 1.8058 2.1791
C 0.1349 1.3873 -0.9488
C -1.3438 1.2930 -1.0927
C -2.1153 0.2912 -0.4902
C -3.4833 0.2289 -0.7273
C -4.0930 1.1665 -1.5641
C -3.3332 2.1778 -2.1573
C -1.9621 2.2423 -1.9216
Au 3.4953 0.0802 -0.0483
O 5.5453 0.0802 -0.0483
C 6.3174 1.0575 0.3518
N 7.6180 0.7305 0.2019
C 7.5942 -0.5165 -0.3169
C 6.2835 -0.9113 -0.4674
H -0.4729 -0.9670 -2.4147
H -0.7402 -3.2400 -3.3135
H 0.3770 -5.1616 -2.2229
H 1.7424 -4.8078 -0.1893
H 2.0159 -2.5374 0.7462
H -0.2922 -1.4767 1.9374
H -1.2001 -1.0148 4.1641
H -0.9940 1.2463 5.1454
H 0.1629 3.0442 3.8872
H 1.1067 2.5988 1.6379
H 0.5480 1.3209 -1.9817
H 0.4348 2.3823 -0.5616
H -1.6742 -0.4577 0.1436
H -4.0620 -0.5584 -0.2673
H -5.1530 1.1044 -1.7554
H -3.7999 2.9046 -2.8081
H -1.3750 3.0209 -2.4004
H 5.9642 2.0020 0.7423
H 8.4718 -1.0963 -0.5702
H 5.9120 -1.8501 -0.8566
