58
 
P 0.9868 -0.0697 0.0704
C 0.1400 -1.6741 0.0996
C -1.2463 -1.8032 0.2164
C -1.8153 -3.0682 0.4151
C -1.0081 -4.2096 0.4829
C 0.3687 -4.1003 0.2894
C 0.9428 -2.8398 0.0866
C 0.4503 0.1460 1.7988
C 0.8456 -0.6725 2.8717
C 0.2638 -0.4939 4.1407
C -0.7090 0.4919 4.3457
C -1.0833 1.3256 3.2944
C -0.5027 1.1597 2.0344
C 0.5466 1.0934 -1.2821
C 1.0082 2.4515 -1.3166
C 1.8680 3.0885 -0.2572
C 0.6213 3.2974 -2.3751
C -0.2453 2.8481 -3.3647
C -0.7256 1.5418 -3.3221
C -0.3253 0.6686 -2.3007
Au 3.4468 -0.0697 0.0704
P 5.9068 -0.0697 0.0704
N 6.8639 1.3587 0.5142
C 6.5290 1.9131 1.8410
C 8.2711 1.3574 0.1829
O 6.3472 -1.2060 1.2505
C 5.9502 -2.4567 0.7157
O 6.3037 0.0542 -1.5926
C 5.7196 1.1691 -2.2042
H -1.8727 -0.9252 0.1942
H -2.8828 -3.1612 0.5475
H -1.4491 -5.1785 0.6858
H 0.9903 -4.9900 0.3266
H 2.0201 -2.7799 -0.0365
H 1.5750 -1.4560 2.7269
H 0.5477 -1.1309 4.9676
H -1.1782 0.6100 5.3164
H -1.8384 2.0886 3.4507
H -0.8329 1.8061 1.2301
H 2.0128 2.4449 0.6278
H 1.3684 4.0219 0.0931
H 2.8547 3.3725 -0.6808
H 0.9683 4.3261 -2.4192
H -0.5566 3.5220 -4.1559
H -1.4168 1.2092 -4.0849
H -0.7215 -0.3353 -2.2992
H 5.4328 1.8689 2.0450
H 6.7922 2.9953 1.8739
H 7.0754 1.3937 2.6539
H 8.3856 1.1646 -0.9013
H 8.8003 0.6033 0.7894
H 8.6740 2.3796 0.3613
H 6.2931 -3.2750 1.3803
H 6.4095 -2.6693 -0.2824
H 4.8393 -2.5322 0.6505
H 6.3521 1.4066 -3.0894
H 5.7369 2.0829 -1.5780
H 4.7011 0.9183 -2.5599
