78
 
P 1.0531 -0.0607 0.0591
O 0.5709 -1.4659 0.9119
C -0.7469 -1.2070 1.3931
C -1.1674 -2.1837 2.4896
O 0.6794 1.5720 0.3765
C 1.5234 1.9466 1.4193
C 1.2533 3.3752 1.8689
C 0.1111 -0.4619 -1.4414
C -0.6393 0.5257 -2.1044
C -1.2671 0.2420 -3.3237
C -1.1517 -1.0266 -3.8955
C -0.3871 -2.0081 -3.2612
C 0.2512 -1.7261 -2.0458
Au 3.5131 -0.0607 0.0591
P 5.9731 -0.0607 0.0591
C 6.7685 -1.4768 -0.8459
C 6.2192 -2.8023 -0.2848
C 4.6896 -2.9490 -0.5489
C 4.3777 -2.9199 -2.0454
C 4.8978 -1.6168 -2.6509
C 6.4159 -1.4691 -2.3802
C 6.5712 1.4428 -0.9495
C 6.0758 2.8626 -0.5583
C 6.7764 3.4367 0.6868
C 8.2973 3.4998 0.4770
C 8.8314 2.1046 0.1473
C 8.1248 1.5269 -1.0963
C 6.3152 0.0404 1.9897
C 5.3623 0.4689 3.0004
C 3.9563 0.7440 2.7785
C 5.7013 0.6983 4.3470
C 6.9713 0.4834 4.8035
C 7.9156 -0.0241 3.9225
C 7.6045 -0.2469 2.5474
H -1.4672 -1.3268 0.5564
H -0.8613 -0.1877 1.8400
H -1.0338 -3.2317 2.1552
H -2.2466 -2.0283 2.7220
H -0.5939 -2.0106 3.4250
H 2.5785 1.9036 1.0197
H 1.3064 1.3097 2.3172
H 1.4857 4.0777 1.0451
H 1.9061 3.6140 2.7383
H 0.1962 3.5044 2.1878
H -0.7140 1.5276 -1.7066
H -1.8318 1.0113 -3.8353
H -1.6401 -1.2422 -4.8387
H -0.2780 -2.9822 -3.7224
H 0.8686 -2.4892 -1.5898
H 7.8685 -1.4403 -0.7206
H 6.4343 -2.8615 0.8010
H 6.7556 -3.6490 -0.7765
H 4.0957 -2.1183 -0.0902
H 4.3456 -3.9185 -0.1286
H 3.2780 -2.9951 -2.1966
H 4.8497 -3.7872 -2.5595
H 4.3405 -0.7627 -2.2100
H 4.6935 -1.6240 -3.7458
H 6.7874 -0.5606 -2.8896
H 6.9294 -2.3200 -2.8825
H 6.1533 1.2665 -1.9578
H 4.9741 2.8888 -0.4539
H 6.3392 3.5523 -1.3996
H 6.5432 2.8069 1.5655
H 6.4099 4.4692 0.8825
H 8.7934 3.8893 1.3947
H 8.5453 4.2016 -0.3532
H 8.6717 1.4548 1.0170
H 9.9278 2.1699 -0.0305
H 8.5631 0.5491 -1.3655
H 8.3627 2.2102 -1.9429
H 3.7947 0.5820 1.7673
H 3.7332 1.7991 3.0296
H 3.3242 0.0535 3.3869
H 4.9603 1.0705 5.0573
H 7.1961 0.7027 5.8470
H 8.8991 -0.2186 4.3319
H 8.4042 -0.6300 1.9353
