48
 
P 1.0417 -0.0837 -0.0355
C 0.6875 0.4574 -1.7492
C -0.6271 0.3735 -2.2626
C -0.9106 0.7032 -3.5953
C 0.1069 1.1510 -4.4340
C 1.4193 1.2401 -3.9473
C 1.7222 0.8729 -2.6110
C 0.6426 -1.7996 0.4203
C 1.3098 -2.4743 1.4527
C 1.0251 -3.8204 1.7199
C 0.0678 -4.5054 0.9671
C -0.6133 -3.8449 -0.0525
C -0.3243 -2.5059 -0.3290
C 0.1759 1.0068 1.1841
C 0.6163 0.6313 2.6288
C 2.1590 0.7812 2.8242
C 2.5745 2.2367 2.5759
C 2.1229 2.7106 1.1862
C 0.6009 2.4943 0.9850
Au 3.5017 -0.0837 -0.0355
C 5.6517 -0.0837 -0.0355
N 6.3984 0.0079 1.0809
C 7.6634 -0.0232 0.6261
C 7.6358 -0.1316 -0.7462
O 6.3810 -0.1662 -1.1245
H -1.4425 0.0245 -1.6470
H -1.9211 0.6076 -3.9827
H -0.1265 1.4158 -5.4636
H 2.1915 1.5808 -4.6268
H 2.7543 0.8903 -2.2341
H 2.0662 -1.9816 2.0377
H 1.5568 -4.3387 2.5053
H -0.1425 -5.5487 1.1676
H -1.3574 -4.3739 -0.6378
H -0.8653 -2.0431 -1.1362
H -0.9244 0.9106 1.0780
H 0.2946 -0.3965 2.8866
H 0.0915 1.3041 3.3519
H 2.7787 0.1091 2.1276
H 2.3990 0.5342 3.8868
H 3.6798 2.3262 2.6751
H 2.1119 2.8946 3.3446
H 2.6849 2.1639 0.4025
H 2.3730 3.7893 1.0802
H 0.3094 2.8550 -0.0222
H 0.0669 3.1273 1.7316
H 8.5443 0.0300 1.2516
H 8.4875 -0.1803 -1.4114
