102
 
P 1.0216 0.0816 -0.0536
C 0.2967 -0.5378 1.5804
C -1.2772 -0.4965 1.6276
C 0.9272 -1.9255 1.9465
C 0.8294 0.3076 2.7586
C 0.4500 1.8920 -0.1001
C -0.4008 2.5480 0.8598
C -0.7280 3.8948 0.7974
C -0.2665 4.6685 -0.2434
C 0.5071 4.0768 -1.2441
C 0.8604 2.7082 -1.1789
C 0.1193 -1.2626 -1.1135
C -0.6817 -2.3608 -0.6292
C -1.5413 -3.1085 -1.4203
C -1.6625 -2.8327 -2.7593
C -0.8616 -1.8410 -3.3212
C 0.0304 -1.0763 -2.5233
Au 3.4816 0.0816 -0.0536
C 5.6316 0.0816 -0.0536
N 6.3365 1.2548 0.0421
C 5.9573 2.6939 0.0199
C 4.7057 3.2172 0.5555
C 3.6316 2.4256 1.3398
C 4.3330 1.7880 2.5466
C 2.5175 3.3431 1.8481
C 4.5019 4.6311 0.5249
C 5.4355 5.5200 0.1245
C 6.6261 5.0737 -0.3489
C 6.9065 3.6958 -0.4789
C 8.2073 3.3966 -1.2385
C 8.1137 4.0296 -2.6390
C 9.4863 3.8998 -0.5345
C 7.5786 0.8367 0.3308
C 7.6258 -0.5413 0.3433
N 6.3881 -1.0506 0.0809
C 5.9081 -2.4705 0.0821
C 6.4648 -3.5018 0.9631
C 7.5604 -3.3017 2.0215
C 7.0886 -3.7185 3.4165
C 8.8228 -4.1102 1.6733
C 6.0058 -4.8448 0.8598
C 5.0348 -5.2311 -0.0289
C 4.5005 -4.3112 -0.8819
C 4.9169 -2.9588 -0.8862
C 4.5357 -2.3066 -2.2209
C 3.9350 -0.9243 -2.4082
C 5.8460 -2.4028 -2.9726
H -1.8748 -1.0760 0.9308
H -1.7283 0.4468 1.3399
H -1.6363 -0.7633 2.6373
H 0.9227 -2.7618 1.2426
H 0.4802 -2.2916 2.8963
H 2.0264 -1.8308 2.0690
H 0.5387 1.3245 2.7978
H 1.9323 0.2985 2.7689
H 0.4447 -0.0471 3.7323
H -0.8563 2.1422 1.7216
H -1.3359 4.3342 1.5853
H -0.5175 5.7222 -0.2584
H 0.8464 4.6967 -2.0601
H 1.4737 2.3011 -1.9683
H -0.8111 -2.6840 0.3714
H -2.1586 -3.8769 -0.9601
H -2.3893 -3.3890 -3.3425
H -0.9788 -1.6460 -4.3783
H 0.5843 -0.2966 -3.0242
H 2.9947 1.7156 0.8698
H 5.0059 2.5302 3.0251
H 4.9372 0.9114 2.2532
H 3.6190 1.4624 3.3203
H 2.9276 4.0506 2.5827
H 1.7186 2.8349 2.3443
H 2.0281 3.8574 0.9945
H 3.6354 5.1587 0.8737
H 5.2086 6.5776 0.2025
H 7.3194 5.8448 -0.6472
H 8.3203 2.3198 -1.4226
H 7.9741 5.1307 -2.5888
H 7.2437 3.6060 -3.1832
H 9.0397 3.8487 -3.2170
H 9.5629 5.0069 -0.5599
H 10.3820 3.5044 -1.0655
H 9.5418 3.5567 0.5193
H 8.4000 1.4951 0.5775
H 8.5437 -1.0603 0.5674
H 7.8493 -2.2534 2.1158
H 6.8040 -4.7908 3.4543
H 6.2237 -3.0955 3.7145
H 7.9158 -3.5758 4.1450
H 8.6129 -5.2021 1.6517
H 9.6196 -3.9582 2.4348
H 9.2079 -3.7776 0.6895
H 6.4107 -5.6438 1.4659
H 4.7300 -6.2710 -0.1088
H 3.8196 -4.7164 -1.6250
H 3.8042 -2.9441 -2.7816
H 4.6253 -0.1216 -2.1491
H 2.9433 -0.8429 -1.9359
H 3.7812 -0.7733 -3.5006
H 6.6246 -1.8624 -2.3938
H 5.7819 -1.9587 -3.9746
H 6.1117 -3.4857 -3.0535
