44
 
P 1.0763 -0.0450 -0.0464
O 0.6197 -0.5201 1.5390
C 0.9947 -1.8172 1.9085
C 2.5015 -2.0409 1.8671
O 0.7186 1.3845 -0.9124
C -0.6321 1.7102 -0.6554
C -0.9514 3.1229 -1.1166
C 0.3228 -1.4121 -0.9916
C -1.0478 -1.6276 -1.1983
C -1.4776 -2.7282 -1.9594
C -0.5534 -3.6287 -2.5006
C 0.8093 -3.4223 -2.3064
C 1.2431 -2.3183 -1.5689
Au 3.5363 -0.0450 -0.0464
N 5.6363 -0.0450 -0.0464
C 6.2773 -1.0820 0.5450
C 7.6622 -1.0654 0.6690
C 8.3922 0.0343 0.1781
O 9.7412 0.1190 0.3103
C 10.5196 -0.7908 0.9989
C 7.7013 1.0800 -0.4509
C 6.3083 1.0199 -0.5549
H 0.4193 -2.5767 1.3425
H 0.6768 -1.9252 2.9705
H 2.8683 -2.0250 0.8314
H 2.7061 -3.0461 2.2880
H 3.0139 -1.2708 2.4800
H -0.8970 1.6500 0.4295
H -1.2772 1.0558 -1.2629
H -0.3837 3.8733 -0.5289
H -2.0399 3.3108 -0.9774
H -0.7122 3.2279 -2.1948
H -1.7890 -0.9663 -0.7873
H -2.5326 -2.8906 -2.1276
H -0.8909 -4.4859 -3.0714
H 1.5291 -4.1173 -2.7273
H 2.3119 -2.1802 -1.4446
H 5.7053 -1.9098 0.9420
H 8.1462 -1.8961 1.1621
H 11.5836 -0.4867 0.9475
H 10.4164 -1.8005 0.5477
H 10.2102 -0.8240 2.0672
H 8.2318 1.9438 -0.8331
H 5.7555 1.8361 -1.0021
