79
 
P 0.9262 0.0660 -0.0138
C -0.0435 1.1993 -1.0773
C 0.1538 -1.4623 -0.6693
C 0.3274 0.5682 1.6574
Au 3.3862 0.0660 -0.0138
C 5.5362 0.0660 -0.0138
N 6.2590 1.2572 0.1316
C 5.9467 2.7466 0.1392
C 4.7367 3.3327 0.6527
C 3.6454 2.6080 1.2493
C 2.7551 2.4214 0.1028
C 4.1074 1.5264 2.2163
C 4.4476 4.7131 0.6213
C 5.3585 5.6059 0.1849
C 6.5729 5.1417 -0.2679
C 6.8833 3.7482 -0.3532
C 8.1868 3.4164 -1.0736
C 8.1637 4.0229 -2.4844
C 9.4409 3.8830 -0.3152
C 7.4875 0.8054 0.4357
C 7.5314 -0.5780 0.4066
N 6.3108 -1.0953 0.0981
C 5.9652 -2.5867 0.0237
C 6.4768 -3.5632 1.0078
C 7.4578 -3.2944 2.1700
C 6.9221 -3.6794 3.5634
C 8.7583 -4.0861 1.9241
C 6.0598 -4.9238 0.9409
C 5.2187 -5.4022 -0.0314
C 4.7888 -4.5693 -1.0200
C 5.1298 -3.2066 -1.0526
C 4.4607 -2.4670 -2.2266
C 3.7565 -3.1484 -3.4295
C 3.3578 -1.7635 -1.5463
H -1.1368 1.0953 -0.9918
H 0.2793 1.0122 -2.1289
H 0.2349 2.2523 -0.8664
H -0.9537 -1.3216 -0.6475
H 0.3634 -2.3273 -0.0087
H 0.4358 -1.6855 -1.7140
H -0.7823 0.5637 1.6400
H 0.6161 1.5739 2.0166
H 0.6693 -0.1762 2.4020
H 3.0778 3.2668 1.9626
H 3.2346 1.8353 -0.6757
H 2.3176 3.3207 -0.3793
H 2.0055 2.0209 0.6416
H 4.2717 0.6221 1.7252
H 3.3757 1.1834 2.9629
H 5.0575 1.8503 2.7074
H 3.4820 5.1069 0.9546
H 5.0964 6.6577 0.2024
H 7.2565 5.9043 -0.5968
H 8.2772 2.3365 -1.2410
H 8.0535 5.1270 -2.4592
H 7.3086 3.6055 -3.0571
H 9.1084 3.7998 -3.0161
H 9.5516 4.9872 -0.3352
H 10.3378 3.4427 -0.8036
H 9.4325 3.5382 0.7402
H 8.3118 1.4453 0.7169
H 8.4391 -1.1175 0.6276
H 7.7156 -2.2357 2.2486
H 6.6676 -4.7572 3.6433
H 6.0347 -3.0718 3.8246
H 7.7123 -3.4901 4.3259
H 8.5750 -5.1842 1.9226
H 9.5089 -3.8884 2.7189
H 9.1905 -3.7921 0.9468
H 6.3783 -5.6641 1.6633
H 4.8966 -6.4399 -0.0329
H 4.1349 -5.0123 -1.7580
H 5.2326 -1.8208 -2.7196
H 2.8678 -3.7559 -3.1481
H 4.4435 -3.7237 -4.0766
H 3.3554 -2.3224 -4.0712
H 2.8241 -2.4021 -0.8099
H 2.6578 -1.1986 -2.1735
H 4.0451 -1.1059 -1.2158
