59
 
P 1.0736 -0.0245 0.0631
C 0.5474 -1.1541 -1.2689
C -0.5507 -2.0273 -1.2445
C -0.7831 -2.8970 -2.3240
C 0.0768 -2.9165 -3.4274
C 1.1704 -2.0565 -3.4664
C 1.4033 -1.1834 -2.3983
C 0.5978 -0.9494 1.5428
C 1.0399 -2.2287 1.8873
C 0.5637 -2.8308 3.0685
C -0.3390 -2.1580 3.9055
C -0.7540 -0.8705 3.5836
C -0.2849 -0.2716 2.4176
C 0.4436 1.6605 -0.2054
C -0.9359 1.9986 -0.2935
C -2.0488 1.0043 -0.2053
C -1.3158 3.3438 -0.4499
C -0.3630 4.3514 -0.4890
C 0.9766 4.0278 -0.3850
C 1.3706 2.6832 -0.2480
Au 3.5336 -0.0245 0.0631
N 5.6336 -0.0245 0.0631
C 6.3838 0.9919 -0.1458
C 5.8678 2.3458 -0.3840
C 4.7092 2.7378 0.2729
C 4.2127 4.0310 0.0958
C 4.7961 4.9024 -0.8214
C 5.9555 4.5128 -1.4909
C 6.5175 3.2518 -1.2421
N 7.7500 0.6625 -0.1261
C 7.8433 -0.6632 0.4218
C 6.4227 -1.2161 0.2329
H -1.2210 -2.0602 -0.4042
H -1.6262 -3.5721 -2.3015
H -0.0983 -3.6033 -4.2484
H 1.8429 -2.0765 -4.3196
H 2.2755 -0.5393 -2.4538
H 1.7408 -2.7522 1.2559
H 0.8894 -3.8232 3.3413
H -0.7142 -2.6261 4.8077
H -1.4409 -0.3347 4.2326
H -0.6271 0.7337 2.2034
H -1.7007 -0.0013 0.0443
H -2.5846 0.9786 -1.1745
H -2.7491 1.3040 0.6028
H -2.3589 3.6181 -0.5220
H -0.6571 5.3883 -0.5936
H 1.6713 4.8509 -0.4151
H 2.3823 2.3741 -0.1559
H 4.2021 2.0441 0.9365
H 3.3568 4.3372 0.6645
H 4.3527 5.8752 -1.0047
H 6.4185 5.1917 -2.1944
H 7.4252 2.9696 -1.7550
H 8.5204 1.3460 -0.1578
H 8.0451 -0.5348 1.5114
H 8.6272 -1.3007 -0.0335
H 6.1133 -1.8231 1.1100
H 6.3356 -1.8066 -0.7044
