48
 
P 1.2750 -0.0000 0.0000
O 0.4285 -0.8165 1.2656
C -0.9665 -0.7622 1.1699
C -1.4033 0.0311 -0.0457
C -2.9350 0.0677 -0.1013
C -0.7801 1.4706 0.1158
O 0.6280 1.5173 0.3865
O 0.6252 -0.9736 -1.2248
C -0.7807 -0.6967 -1.2980
Au 3.7350 0.0003 -0.0005
C 5.8850 0.0006 -0.0009
N 6.5859 -1.0568 -0.1415
C 6.0283 -2.3900 -0.2264
C 5.2572 -2.7244 1.0550
C 5.1166 -2.4912 -1.4519
C 7.9990 -0.7480 -0.1222
C 8.0290 0.7832 -0.2445
N 6.6792 1.1547 0.0967
C 6.2382 2.4883 0.4631
C 6.5476 3.4817 -0.6654
C 4.7326 2.5059 0.8219
H -1.3529 -0.2985 2.1041
H -1.3501 -1.8055 1.1195
H -3.3372 0.5330 0.8265
H -3.3375 -0.9688 -0.1564
H -3.2853 0.6423 -0.9792
H -1.2818 1.9589 0.9806
H -1.0023 2.0739 -0.7880
H -1.2856 -1.6826 -1.4003
H -1.0001 -0.1098 -2.2140
H 6.8577 -3.1271 -0.3273
H 4.3995 -2.0318 1.1876
H 5.9296 -2.6321 1.9348
H 4.8731 -3.7649 1.0105
H 4.2802 -1.7503 -1.3857
H 4.7096 -3.5209 -1.5269
H 5.7151 -2.2933 -2.3669
H 8.5781 -1.2228 -0.9424
H 8.3920 -1.0697 0.8682
H 8.1728 1.0686 -1.3120
H 8.8165 1.2412 0.3892
H 6.8181 2.7990 1.3632
H 5.9931 3.1997 -1.5850
H 7.6360 3.4879 -0.8954
H 6.2616 4.5124 -0.3669
H 4.1226 2.2879 -0.0679
H 4.4757 3.5293 1.1889
H 4.4301 1.7073 1.5523
