62
 
P 1.0164 0.0657 -0.0735
C -0.0747 -0.5096 1.4388
C 0.0333 -1.9843 2.0047
C 1.3808 -2.3191 2.6879
C 1.6539 -1.3708 3.8595
C 1.5666 0.0839 3.3791
C 0.1902 0.3703 2.7173
C 0.7140 1.9238 -0.3951
C 1.4965 2.2225 -1.6621
C 0.7111 1.6315 -2.8876
C -0.5383 2.4671 -3.1333
C -1.4512 2.3834 -1.9001
C -0.6806 2.6657 -0.5861
C 0.7692 -1.2987 -1.2876
C 1.7165 -1.5743 -2.3390
C 3.0158 -0.8557 -2.5782
C 1.4236 -2.5307 -3.3192
C 0.2020 -3.1824 -3.3355
C -0.7530 -2.8860 -2.3690
C -0.4782 -1.9550 -1.3588
Au 3.4764 0.0657 -0.0735
N 5.5764 0.0657 -0.0735
C 5.5069 0.5836 1.3036
N 6.3911 -1.0302 0.0508
C 7.6073 -0.6948 -0.2211
C 7.6498 0.5992 -0.7363
C 6.3406 1.0450 -0.7329
H -1.1317 -0.3485 1.1468
H -0.2165 -2.7583 1.2595
H -0.7370 -2.0975 2.8134
H 2.1996 -2.2489 1.9460
H 1.3614 -3.3573 3.0987
H 2.6568 -1.5849 4.2999
H 0.9081 -1.5452 4.6716
H 2.3794 0.2817 2.6528
H 1.7198 0.7398 4.2666
H 0.0822 1.4482 2.4951
H -0.5798 0.1421 3.4974
H 1.1739 2.4289 0.4798
H 2.5264 1.8559 -1.4592
H 1.6207 3.3134 -1.8238
H 0.3362 0.6068 -2.7352
H 1.3322 1.6113 -3.7999
H -1.0947 2.1005 -4.0276
H -0.2129 3.5086 -3.3469
H -1.8975 1.3734 -1.8389
H -2.2839 3.1183 -2.0401
H -1.3637 2.5791 0.2837
H -0.4293 3.7551 -0.6520
H 3.1364 0.0294 -2.0001
H 3.0437 -0.4516 -3.6137
H 3.8807 -1.5246 -2.4093
H 2.1363 -2.7345 -4.1125
H -0.0104 -3.8906 -4.1263
H -1.7201 -3.3676 -2.4211
H -1.2688 -1.7301 -0.6606
H 5.1226 -0.2037 2.0024
H 4.6068 1.2336 1.2887
H 6.1480 1.4007 1.6961
H 8.4599 -1.3442 -0.0717
H 8.5136 1.1429 -1.0959
H 5.9751 2.0000 -1.0889
