53
 
P 0.9355 0.0588 0.0487
C 0.1713 0.4844 -1.5340
C -1.1996 0.4604 -1.8069
C -1.6576 0.7671 -3.0984
C -0.7541 1.0907 -4.1190
C 0.6119 1.1355 -3.8493
C 1.0710 0.8398 -2.5643
C 0.5686 -1.7019 -0.0443
C 0.9435 -2.5222 -1.1161
C 0.6552 -3.8955 -1.0750
C 0.0037 -4.4513 0.0333
C -0.3847 -3.6341 1.0945
C -0.1109 -2.2656 1.0519
C 0.4980 1.2638 1.3659
C 1.2755 1.4252 2.5603
C 2.6136 0.7964 2.8067
C 0.7894 2.2187 3.6135
C -0.4370 2.8618 3.5143
C -1.2025 2.7147 2.3632
C -0.7477 1.9177 1.3076
Au 3.3955 0.0588 0.0487
N 5.4955 0.0588 0.0487
C 6.1280 -1.1330 -0.0904
C 7.5227 -1.2127 0.0949
O 8.1854 -2.3957 0.1696
C 7.5856 -3.6392 0.1971
C 8.2418 -0.0259 0.2778
C 7.5703 1.1953 0.3547
C 6.1761 1.2087 0.2932
H -1.9075 0.1989 -1.0369
H -2.7153 0.7442 -3.3148
H -1.1097 1.3060 -5.1194
H 1.3147 1.3910 -4.6363
H 2.1407 0.8769 -2.3807
H 1.4553 -2.1062 -1.9720
H 0.9452 -4.5356 -1.8964
H -0.2002 -5.5144 0.0734
H -0.8894 -4.0613 1.9540
H -0.4152 -1.6482 1.8898
H 3.0371 0.3713 1.9150
H 2.5406 0.0331 3.6128
H 3.3454 1.5710 3.1103
H 1.3688 2.3392 4.5234
H -0.7952 3.4689 4.3367
H -2.1641 3.2057 2.2980
H -1.3969 1.8057 0.4598
H 5.5250 -2.0213 -0.2179
H 8.3506 -4.4126 0.4143
H 7.1153 -3.8492 -0.7835
H 6.8194 -3.6881 1.0053
H 9.3181 -0.0514 0.3955
H 8.1214 2.1161 0.4970
H 5.6347 2.1401 0.3915
