37
 
C 0.9010 -0.6430 -0.0020
N -0.3417 -1.1159 -0.0120
C -0.6791 -2.5280 -0.0332
C 0.6121 -3.4046 -0.0141
C -1.1551 -0.0359 -0.0080
C -0.3625 1.0976 0.0114
N 0.9281 0.7045 0.0155
C 2.1415 1.5237 0.0473
C 1.8714 3.0209 0.0776
Au 2.6584 -1.8814 -0.0135
N 4.3750 -3.0911 -0.0247
C 5.6105 -2.5359 -0.1135
O 5.7393 -1.1954 -0.1582
C 4.6467 -0.3560 -0.1290
C 6.7394 -3.3633 -0.2040
C 6.5726 -4.7523 -0.2019
C 5.2920 -5.2966 -0.1029
C 4.1954 -4.4391 -0.0143
H -1.2806 -2.7316 -0.9477
H -1.3183 -2.7518 0.8501
H 1.2642 -3.2131 -0.8750
H 0.2758 -4.4621 -0.0355
H 1.2296 -3.2262 0.8766
H -2.2365 -0.0534 -0.0168
H -0.7024 2.1257 0.0236
H 2.7403 1.3122 -0.8602
H 2.7181 1.2683 0.9610
H 1.3260 3.3245 -0.8395
H 2.8401 3.5647 0.1147
H 1.2814 3.2832 0.9798
H 5.0108 0.6892 -0.1922
H 4.0773 -0.5001 0.8015
H 3.9748 -0.5615 -0.9774
H 7.7316 -2.9410 -0.2954
H 7.4307 -5.4073 -0.2864
H 5.1476 -6.3698 -0.1090
H 3.1942 -4.8446 0.0432
