103
 
P -1.3500 0.0010 0.7980
N -0.4696 1.5076 0.4253
C -0.1019 2.1604 1.6836
C 0.5783 1.6976 -0.5941
C 0.3637 0.8934 -1.8281
N 0.7751 -0.5544 -1.8128
C 0.9953 -1.5406 -0.7019
C 1.2945 -0.9909 0.6774
N 0.0867 -0.8077 1.5613
C -0.2652 -2.0976 2.1838
N -1.9814 -0.2974 -0.9370
C -3.2496 0.3217 -1.2764
C -1.5384 -1.2874 -2.0178
C -0.1431 -1.1762 -2.7227
Au -3.3226 0.0026 2.2679
C -5.0466 0.0040 3.5525
N -5.5606 1.0998 4.1263
C -5.1823 2.5682 4.0019
C -4.7693 3.2167 2.7218
C -4.6378 2.6003 1.2888
C -5.7106 1.5959 0.9323
C -4.8031 3.5950 0.1111
C -4.5048 4.6202 2.7152
C -4.6069 5.4314 3.7932
C -4.9894 4.9148 4.9758
C -5.2977 3.5451 5.1488
C -5.9239 3.3153 6.5416
C -5.6156 4.2814 7.7468
C -7.4117 3.5526 6.2842
C -6.5058 0.5766 5.1156
C -6.8458 -0.7939 4.6074
N -5.6357 -1.2249 3.9887
C -4.9416 -2.4866 4.1957
C -4.1582 -3.1345 3.1301
C -3.9860 -2.7135 1.6259
C -3.9791 -3.9181 0.6443
C -5.0672 -1.8663 1.0702
C -3.4894 -4.3368 3.4560
C -3.5396 -4.9106 4.6964
C -4.2736 -4.3410 5.6926
C -5.0019 -3.1565 5.5059
C -5.7945 -2.6940 6.7602
C -7.1734 -3.4153 6.8207
C -5.0960 -2.9512 8.1121
H -0.9442 2.1183 2.4115
H 0.1364 3.2291 1.5093
H 0.7803 1.6518 2.1277
H 1.6176 1.6587 -0.2350
H 0.4517 2.7516 -0.9305
H 0.8301 1.3701 -2.7162
H -0.6852 1.1056 -2.1199
H 1.8159 -2.2125 -1.0534
H 0.2104 -2.3091 -0.5548
H 1.9802 -0.1406 0.6368
H 1.9750 -1.7483 1.1307
H 0.6446 -2.6680 2.4920
H -0.8282 -2.7574 1.4932
H -0.8119 -1.9210 3.1278
H -3.8700 0.2458 -0.3990
H -3.8030 -0.2306 -2.0763
H -3.0812 1.3520 -1.6453
H -1.6248 -2.2903 -1.5903
H -2.1593 -1.1850 -2.9397
H -0.1306 -0.6013 -3.6885
H 0.2136 -2.1789 -3.0670
H -3.6180 2.1600 1.2120
H -6.7490 1.9044 1.1010
H -5.5303 0.8040 1.5283
H -5.6329 1.2111 -0.1023
H -5.8246 4.0458 0.1699
H -4.7074 3.0813 -0.8676
H -4.0161 4.3602 0.0551
H -4.2163 5.1936 1.8619
H -4.4200 6.4991 3.6952
H -5.0873 5.6614 5.7478
H -5.6190 2.3351 6.9312
H -6.0082 5.3193 7.6163
H -4.5466 4.3399 8.0354
H -6.1688 3.9071 8.6392
H -7.5508 4.5780 5.8697
H -8.0233 3.4562 7.1988
H -7.7926 2.9155 5.4974
H -7.5041 1.0049 5.2088
H -5.9928 0.4824 6.0936
H -7.6063 -0.7119 3.8010
H -7.3393 -1.4115 5.3314
H -3.0558 -2.1360 1.5120
H -4.9119 -4.5098 0.7830
H -3.0962 -4.5711 0.7436
H -3.9309 -3.5804 -0.4156
H -6.0737 -2.3036 1.2319
H -4.9473 -1.6141 -0.0012
H -4.9479 -0.9985 1.5494
H -2.9038 -4.8962 2.7546
H -3.0052 -5.8307 4.8894
H -4.2469 -4.8676 6.6283
H -5.8576 -1.5953 6.7788
H -7.0259 -4.5118 6.8623
H -7.8386 -3.2690 5.9469
H -7.7455 -3.0906 7.7172
H -5.0684 -4.0316 8.3581
H -5.6736 -2.4832 8.9400
H -4.0716 -2.5267 8.1123
