33
 
C 1.0240 -0.6530 -0.0550
N 1.0683 0.6176 0.0104
C 2.2995 1.3661 0.0219
C -0.2581 1.1799 0.1524
C -1.1832 -0.0171 -0.1339
N -0.2928 -1.1370 0.0122
C -0.6894 -2.5177 0.1365
Au 2.7802 -1.8697 -0.2955
N 4.4956 -3.0582 -0.5304
C 5.6553 -2.4247 -0.8323
C 6.8155 -3.1653 -1.1200
O 7.9853 -2.5767 -1.4791
C 8.1825 -1.2159 -1.6041
C 6.7434 -4.5624 -1.0654
C 5.5380 -5.1918 -0.7408
C 4.4085 -4.4125 -0.4802
H 3.1759 0.6666 -0.0836
H 2.3743 1.9271 0.9799
H 2.2927 2.0970 -0.8141
H -0.4691 2.0188 -0.5439
H -0.3672 1.5133 1.2086
H -1.5057 -0.0085 -1.2010
H -2.0659 -0.0361 0.5381
H -1.7987 -2.5983 0.1296
H -0.3252 -2.9090 1.1110
H -0.2672 -3.1238 -0.6887
H 5.6483 -1.3445 -0.8775
H 9.2089 -1.0261 -1.9767
H 8.0576 -0.7204 -0.6179
H 7.4624 -0.7882 -2.3358
H 7.6170 -5.1612 -1.2908
H 5.4751 -6.2720 -0.7136
H 3.4589 -4.8820 -0.2599
