66
 
P 0.9282 -0.0697 0.0008
C 0.2239 0.7060 -1.5678
C -1.2842 0.7670 -1.8630
C 0.7888 2.1266 -1.7350
C 0.4252 -1.8673 0.0116
C -1.1041 -2.1325 0.0482
C 1.0307 -2.6371 -1.1455
C 0.4473 1.0215 1.4576
C -1.0771 1.0917 1.6926
C 1.0327 0.5180 2.7952
Au 3.3882 -0.0697 0.0008
P 5.8482 -0.0697 0.0008
C 6.4268 -1.7015 -0.6330
C 6.1006 -2.0692 -1.9617
C 6.3326 -3.3716 -2.4358
C 6.8882 -4.3347 -1.5957
F 7.0763 -5.6043 -2.0437
C 7.2207 -3.9955 -0.2833
C 6.9904 -2.6939 0.1999
C 6.3915 1.1855 -1.2037
C 5.4859 2.0080 -1.9023
C 5.9598 2.9429 -2.8421
C 7.3326 3.0835 -3.0706
F 7.7872 3.9629 -4.0003
C 8.2378 2.3190 -2.3354
C 7.7714 1.3781 -1.4098
C 6.3580 0.0361 1.7528
C 5.4465 0.2368 2.8078
C 5.9146 0.4712 4.1151
C 7.2869 0.4856 4.3833
F 7.7385 0.7455 5.6375
C 8.1949 0.2446 3.3533
C 7.7346 0.0292 2.0496
H 0.6700 0.1077 -2.3910
H -1.8536 1.3996 -1.1751
H -1.7513 -0.2103 -1.9711
H -1.4350 1.2328 -2.8601
H 0.3288 2.8284 -1.0084
H 0.5675 2.5058 -2.7590
H 1.8923 2.1398 -1.6113
H 0.8225 -2.2891 0.9591
H -1.6183 -1.8806 -0.8826
H -1.6210 -1.6396 0.8857
H -1.3068 -3.2167 0.1669
H 0.6607 -2.2371 -2.1112
H 0.7291 -3.7060 -1.0699
H 2.1356 -2.5711 -1.0905
H 0.8223 2.0449 1.2684
H -1.5045 0.1223 2.0124
H -1.6250 1.4555 0.8282
H -1.3126 1.8048 2.5096
H 0.6683 -0.5037 3.0522
H 0.7053 1.1869 3.6271
H 2.1342 0.5205 2.7912
H 5.6249 -1.3674 -2.6338
H 6.0534 -3.6479 -3.4476
H 7.6269 -4.7583 0.3703
H 7.2031 -2.5040 1.2386
H 4.4203 1.9317 -1.7311
H 5.2663 3.5589 -3.4018
H 9.3031 2.4482 -2.4899
H 8.4970 0.8000 -0.8573
H 4.3845 0.2539 2.6284
H 5.2181 0.6645 4.9224
H 9.2588 0.2490 3.5597
H 8.4624 -0.1207 1.2662
