45
 
C 0.9010 -0.6430 -0.0020
N -0.3424 -1.1124 0.0106
C -0.6857 -2.5353 0.0264
C 0.6322 -3.4023 0.0012
C -1.4838 -2.8294 1.3108
C -1.5645 -2.8436 -1.2048
C -1.1425 -0.0201 0.0098
C -0.3333 1.1044 -0.0081
N 0.9528 0.6903 -0.0138
C 2.1921 1.4757 -0.0250
C 2.2181 2.3637 1.2317
C 3.4277 0.5119 -0.0240
C 2.2198 2.3699 -1.2825
Au 2.6584 -1.8814 -0.0135
N 4.3750 -3.0911 -0.0247
C 5.6138 -2.5273 -0.0760
F 5.7519 -1.1821 -0.0649
C 6.7489 -3.3358 -0.1814
C 6.5985 -4.7226 -0.2249
C 5.3224 -5.2832 -0.1520
C 4.2117 -4.4414 -0.0504
H 1.2720 -3.2121 0.8773
H 1.2563 -3.2010 -0.8826
H 0.3545 -4.4760 -0.0020
H -0.8590 -2.6131 2.2033
H -1.8081 -3.8901 1.3470
H -2.3932 -2.1895 1.3707
H -1.0142 -2.6188 -2.1425
H -2.4896 -2.2222 -1.1994
H -1.8775 -3.9085 -1.2181
H -2.2248 -0.0308 0.0199
H -0.6593 2.1369 -0.0149
H 2.1661 1.7357 2.1463
H 1.3435 3.0521 1.2422
H 3.1410 2.9789 1.2665
H 3.4315 -0.1414 0.8642
H 4.3673 1.0982 -0.0167
H 3.4358 -0.1420 -0.9113
H 1.3583 3.0747 -1.2883
H 2.1600 1.7560 -2.2062
H 3.1514 2.9740 -1.3165
H 7.7340 -2.8915 -0.2448
H 7.4678 -5.3601 -0.3213
H 5.1941 -6.3571 -0.1899
H 3.2158 -4.8614 -0.0163
