54
 
P 0.9354 -0.0240 0.0724
C 0.2281 -1.3577 -1.0556
C -1.2803 -1.6316 -1.1881
C 0.7987 -1.1717 -2.4708
C 0.4452 -0.4490 1.8216
C -1.0817 -0.4708 2.0943
C 1.0496 -1.7611 2.2850
C 0.4650 1.6468 -0.6450
C -1.0591 1.8992 -0.6595
C 1.0605 2.8093 0.1745
Au 3.3954 -0.0240 0.0724
N 5.4954 -0.0240 0.0724
C 6.1200 -0.6184 1.1259
C 7.5139 -0.6653 1.1897
C 8.2613 -0.1080 0.1563
C 7.6064 0.4815 -0.9295
C 8.3309 1.0139 -1.9899
C 7.6663 1.5905 -3.0656
C 6.2534 1.6645 -3.1016
C 5.5350 2.3105 -4.2416
O 4.3152 2.3784 -4.2100
C 6.2273 2.9123 -5.4414
C 5.5181 1.1126 -2.0209
C 6.1950 0.5227 -0.9510
H 0.6716 -2.3019 -0.6735
H -1.8519 -0.8138 -1.6399
H -1.7495 -1.9696 -0.2639
H -1.4246 -2.4909 -1.8784
H 0.3492 -0.2874 -2.9687
H 0.5736 -2.0667 -3.0942
H 1.9037 -1.0568 -2.4464
H 0.8508 0.3662 2.4574
H -1.5997 -1.3140 1.6276
H -1.5938 0.4619 1.8132
H -1.2786 -0.6066 3.1778
H 0.6716 -2.6018 1.6686
H 0.7568 -1.9447 3.3434
H 2.1545 -1.6964 2.2244
H 0.8444 1.7103 -1.6829
H -1.4851 1.9669 0.3591
H -1.6123 1.1553 -1.2292
H -1.2898 2.8711 -1.1432
H 0.6879 2.7995 1.2249
H 0.7422 3.7840 -0.2665
H 2.1659 2.7887 0.1792
H 5.5288 -1.0600 1.9168
H 8.0118 -1.1351 2.0278
H 9.3438 -0.1440 0.1984
H 9.4142 0.9784 -1.9924
H 8.2966 1.9701 -3.8484
H 7.3248 2.8184 -5.4486
H 5.9980 3.9964 -5.4886
H 5.8609 2.4178 -6.3638
H 4.4220 1.1199 -1.9835
