54
 
P 1.0667 0.0612 0.0425
C 0.3587 -1.4812 -0.7652
C -1.1525 -1.7140 -0.7857
C 0.9189 -1.6667 -2.1904
C 0.5388 -0.0370 1.8183
C 1.0411 -1.2492 2.6054
C 0.9496 1.2480 2.5478
C 0.5707 1.5921 -0.9246
C 1.0495 1.6555 -2.3738
C -0.9499 1.8715 -0.8919
Au 3.5267 0.0612 0.0425
P 5.9867 0.0612 0.0425
C 6.8806 -0.3252 1.5830
C 6.4623 -1.3474 -0.9987
C 6.5130 1.7658 -0.3996
C 5.9923 2.7738 0.6258
C 8.0564 1.8262 -0.4689
C 5.9498 2.1001 -1.7927
H 0.8003 -2.3163 -0.1827
H -1.6864 -0.9774 -1.4039
H -1.5684 -1.7556 0.2377
H -1.3480 -2.7017 -1.2664
H 0.4157 -1.0243 -2.9243
H 0.7251 -2.6957 -2.5591
H 2.0177 -1.4927 -2.2211
H -0.5726 -0.0707 1.8201
H 2.1465 -1.2394 2.6993
H 0.6974 -2.1984 2.1522
H 0.6086 -1.2078 3.6336
H 2.0551 1.3546 2.5672
H 0.5714 1.2358 3.5942
H 0.5068 2.1375 2.0511
H 1.0561 2.4365 -0.3933
H 0.4693 0.9945 -3.0316
H 2.1349 1.4469 -2.4408
H 0.8490 2.6709 -2.7798
H -1.5327 1.1081 -1.4322
H -1.1763 2.8320 -1.4064
H -1.3358 1.9532 0.1453
H 6.5162 -1.3150 1.9380
H 6.5515 0.4004 2.3599
H 7.9776 -0.3398 1.5008
H 6.0794 -2.3061 -0.6051
H 7.5737 -1.3775 -1.0517
H 6.0839 -1.1706 -2.0276
H 6.4008 2.5594 1.6335
H 4.8835 2.7349 0.6679
H 6.3061 3.8016 0.3427
H 8.5193 1.5987 0.5124
H 8.4022 2.8386 -0.7656
H 8.4514 1.0981 -1.2124
H 4.8405 2.0496 -1.7926
H 6.3298 1.3851 -2.5564
H 6.2592 3.1213 -2.1058
