37
 
C 0.9010 -0.6430 -0.0020
N -0.3453 -1.1049 -0.0092
C -0.6909 -2.5237 -0.0051
C 0.6171 -3.3970 0.0104
C -1.6002 -2.8207 1.2005
C -1.1381 -0.0089 -0.0203
C -0.3175 1.1109 -0.0053
N 0.9640 0.6847 0.0101
C 2.2075 1.4548 0.0412
C 2.2180 2.3344 1.2995
C 3.4544 0.5093 0.0032
Au 2.6584 -1.8814 -0.0135
C 4.4159 -3.1199 -0.0250
N 5.6800 -2.6579 -0.0225
H 5.9871 -1.6605 -0.0160
C 6.4585 -3.7562 -0.0251
Cl 8.2115 -3.7367 -0.0190
C 5.6464 -4.8708 -0.0307
Cl 6.1554 -6.5488 -0.0341
N 4.3655 -4.4643 -0.0308
H -1.2744 -2.7468 -0.9267
H 1.2585 -3.1938 0.8786
H 1.2446 -3.2143 -0.8734
H 0.3151 -4.4644 0.0185
H -1.0782 -2.5960 2.1536
H -1.9240 -3.8820 1.1979
H -2.5228 -2.1960 1.1582
H -2.2207 -0.0130 -0.0305
H -0.6325 2.1469 -0.0014
H 2.2300 2.1152 -0.8533
H 2.1918 1.7036 2.2139
H 1.3256 2.9990 1.3152
H 3.1205 2.9785 1.3220
H 3.5020 -0.1593 0.8776
H 4.3731 1.1290 -0.0180
H 3.4564 -0.1286 -0.8959
H 3.5083 -5.0600 -0.0335
