95
 
P 1.2750 0.0000 0.0000
N 0.4522 0.9379 1.2403
C 1.0615 0.5501 2.5587
C 2.6143 0.7773 2.5956
C 0.4846 1.3556 3.7302
C -1.0027 0.8692 1.1370
C -1.4263 -0.0288 -0.0201
C -2.9606 -0.0495 -0.0612
C -0.8511 0.5602 -1.3830
N 0.6430 0.7570 -1.4691
C 1.2083 0.0464 -2.6835
C 0.6398 0.4845 -4.0390
C 2.7503 0.0957 -2.8179
N 0.6413 -1.5978 0.4264
C 1.1987 -2.6539 -0.4950
C 2.7386 -2.7201 -0.5127
C 0.6692 -4.0699 -0.2342
C -0.8548 -1.4834 0.2673
Au 3.7350 0.0003 -0.0005
P 6.1950 0.0007 -0.0009
C 6.8921 1.5717 0.8426
C 6.4265 1.6364 2.3192
C 8.4159 1.7355 0.7830
C 6.2588 2.8410 0.2194
C 6.7500 -1.5766 0.9496
C 6.2402 -2.8626 0.2562
C 8.2938 -1.7055 0.9767
C 6.2125 -1.6674 2.3911
C 6.5496 0.0802 -1.7953
C 6.1031 1.1159 -2.6091
C 6.2677 1.0638 -3.9975
C 6.8585 -0.0558 -4.6444
N 6.8817 -0.1937 -6.0942
C 6.3067 0.7995 -6.9950
C 7.3764 -1.3860 -6.7842
C 7.3797 -1.0558 -3.7980
C 7.2385 -0.9759 -2.4176
H 0.8618 -0.5274 2.7637
H 2.8700 1.8331 2.3889
H 3.2075 0.1869 1.8900
H 3.0154 0.4911 3.5931
H 0.7018 2.4338 3.5910
H 0.9499 1.0082 4.6794
H -0.6030 1.2143 3.8558
H -1.3752 1.9067 0.9825
H -1.4614 0.4767 2.0645
H -3.3504 0.9794 -0.2273
H -3.3652 -0.4153 0.9084
H -3.3223 -0.7093 -0.8733
H -1.3188 1.5483 -1.5822
H -1.2248 -0.1356 -2.1614
H 0.9061 -0.9845 -2.6650
H 0.9414 1.5193 -4.2808
H -0.4585 0.3766 -4.1032
H 1.0509 -0.2010 -4.8210
H 3.1010 1.1041 -3.1015
H 3.0779 -0.6453 -3.5825
H 3.3114 -0.1811 -1.9397
H 0.8531 -2.5000 -1.5042
H 3.0824 -3.0831 0.4766
H 3.2692 -1.7799 -0.7762
H 3.0735 -3.4321 -1.2992
H 0.9863 -4.4493 0.7540
H 1.0721 -4.7435 -1.0287
H -0.4323 -4.1252 -0.3289
H -1.3100 -1.8718 1.2049
H -1.2342 -2.1131 -0.5623
H 6.9850 0.9646 2.9711
H 5.3318 1.4553 2.3958
H 6.6331 2.6259 2.7813
H 8.9445 1.0150 1.4140
H 8.7099 2.7246 1.1986
H 8.7749 1.6606 -0.2620
H 5.1479 2.7663 0.2029
H 6.6599 3.0770 -0.7793
H 6.5061 3.7432 0.8280
H 6.6836 -3.1040 -0.7153
H 5.1659 -2.8224 0.1286
H 6.4808 -3.7614 0.8691
H 8.7405 -1.5846 -0.0301
H 8.6144 -2.6968 1.3613
H 8.7642 -0.9855 1.6529
H 5.1119 -1.5380 2.4111
H 6.6962 -0.9870 3.0892
H 6.4627 -2.6552 2.8373
H 5.5806 1.9569 -2.1990
H 5.8683 1.9085 -4.5189
H 5.8813 1.6877 -6.5154
H 5.4758 0.3376 -7.5709
H 7.0829 1.1572 -7.7011
H 7.7700 -2.1874 -6.1465
H 8.1876 -1.1063 -7.4873
H 6.5467 -1.8493 -7.3630
H 7.8774 -1.9426 -4.1501
H 7.6541 -1.7926 -1.8788
