59
 
C 0.9010 -0.6430 -0.0020
N -0.3882 -1.1736 0.0204
C -0.9068 -2.5983 0.0223
C -0.0351 -3.7472 0.0371
C 1.3972 -3.6884 0.1941
C -0.4837 -5.0630 0.0060
C -1.8158 -5.3631 0.0102
C -2.2305 -6.8064 0.0265
C -2.7320 -4.3196 0.0357
C -2.3225 -2.9572 0.0358
C -3.4694 -1.9847 0.0823
C -1.1487 -0.0566 0.0288
C -0.3692 1.0552 0.0283
N 0.9358 0.7243 -0.0055
C 2.0593 1.6937 -0.0317
C 3.3582 1.4530 0.5579
C 3.7722 0.2292 1.3264
C 4.3741 2.4374 0.4799
C 4.1635 3.6562 -0.1570
C 5.2185 4.7232 -0.2395
C 2.9420 3.9006 -0.7434
C 1.9026 2.9641 -0.7020
C 0.6739 3.3800 -1.4581
Au 2.6584 -1.8814 -0.0135
N 4.3750 -3.0911 -0.0247
C 4.8941 -3.5823 -1.1862
F 4.3414 -3.2404 -2.3743
C 5.9858 -4.4636 -1.1530
C 6.5289 -4.8392 0.0768
C 5.9798 -4.3350 1.2542
C 4.8924 -3.4581 1.1817
H 1.4625 -2.9441 0.9960
H 1.9030 -3.9081 -0.7847
H 1.8020 -4.4694 0.8606
H 0.2353 -5.8792 0.0153
H -1.3457 -7.4845 0.0059
H -2.8499 -7.0330 -0.8624
H -2.7911 -7.0235 0.9583
H -3.7828 -4.5839 0.0617
H -4.4636 -2.4774 0.1263
H -3.4815 -1.3728 -0.8423
H -3.4041 -1.3848 1.0151
H -2.2034 0.0552 0.0435
H -0.8033 2.0269 0.0798
H 2.9666 -0.4923 1.5043
H 4.1298 0.5353 2.3335
H 4.6269 -0.2538 0.7985
H 5.3433 2.2586 0.9353
H 6.1631 4.4197 0.2549
H 4.8452 5.6526 0.2456
H 5.4284 4.9479 -1.3076
H 2.8030 4.8528 -1.2447
H 0.8496 4.2728 -2.0926
H -0.1096 3.7185 -0.7604
H 0.3735 2.5599 -2.1426
H 6.4028 -4.8665 -2.0672
H 7.3656 -5.5275 0.1193
H 6.3860 -4.6325 2.2132
H 4.4475 -3.0804 2.0922
