60
 
P 1.2750 0.0000 0.0000
N 0.4398 1.5336 -0.2334
C 1.0451 2.5234 0.7220
C 2.5944 2.6866 0.5135
C 0.4330 3.9272 0.5842
C -1.0142 1.4013 -0.2276
C -1.4285 -0.0438 0.0199
C -2.9643 -0.0961 0.0174
C -0.8495 -0.9646 -1.1422
N 0.6440 -0.9407 -1.3574
C 1.2096 -2.3479 -1.3049
C 0.6526 -3.3194 -2.3550
C 2.7538 -2.4417 -1.3952
N 0.6475 -0.3741 1.6133
C 1.2209 -1.6687 2.1329
C 2.7722 -1.7026 2.2075
C 0.6735 -2.0890 3.5071
C -0.8507 -0.4712 1.4389
Au 3.7350 0.0003 -0.0005
N 5.8350 0.0006 -0.0009
C 6.4790 0.4840 1.0951
C 7.8715 0.5898 1.1021
F 8.5156 1.0819 2.1890
C 8.5904 0.2000 -0.0296
C 7.9110 -0.2925 -1.1467
C 6.5158 -0.3826 -1.1142
H 0.8672 2.1907 1.7707
H 2.8326 3.0113 -0.5160
H 3.2095 1.7901 0.6755
H 2.9915 3.4389 1.2314
H 0.6098 4.3249 -0.4353
H 0.8994 4.6096 1.3288
H -0.6498 3.9500 0.8007
H -1.3863 1.7520 -1.2166
H -1.4808 2.0296 0.5538
H -3.3557 0.2405 -0.9689
H -3.3742 0.5864 0.7945
H -3.3246 -1.1235 0.2166
H -1.3188 -0.6774 -2.1076
H -1.2181 -1.9818 -0.8963
H 0.8995 -2.8292 -0.3877
H 0.9644 -3.0302 -3.3750
H -0.4465 -3.4255 -2.3027
H 1.0577 -4.3378 -2.1339
H 3.1296 -2.1274 -2.3857
H 3.0759 -3.4886 -1.1895
H 3.2959 -1.8614 -0.6637
H 0.8936 -2.4932 1.5131
H 3.1403 -1.0209 3.0011
H 3.3135 -1.4777 1.2670
H 3.0943 -2.7380 2.4553
H 0.9823 -1.3840 4.3010
H 1.0712 -3.1029 3.7494
H -0.4293 -2.1944 3.5108
H -1.3108 0.1728 2.2210
H -1.2236 -1.5014 1.6064
H 5.9049 0.8011 1.9557
H 9.6692 0.2877 -0.0444
H 8.4589 -0.5877 -2.0319
H 5.9740 -0.7413 -1.9790
