43
 
P 0.9643 -0.0687 0.0634
C 0.2565 0.3067 -1.6366
C -1.2548 0.2679 -1.8639
C 0.8182 1.6325 -2.1904
C 0.4328 -1.8058 0.4372
C 0.9310 -2.8856 -0.5252
C 0.8459 -2.1701 1.8682
C 0.4626 1.2644 1.2866
C 0.9394 2.6800 0.9693
C -1.0590 1.3035 1.5610
Au 3.4243 -0.0687 0.0634
N 5.5243 -0.0687 0.0634
C 6.1693 -0.1194 -1.1333
C 7.5604 -0.2345 -1.1794
C 8.2795 -0.2975 0.0163
Cl 10.0234 -0.4858 -0.0161
C 7.6008 -0.2292 1.2367
C 6.2065 -0.1160 1.2394
H 0.6963 -0.4755 -2.2897
H -1.7855 1.0608 -1.3175
H -1.6720 -0.7289 -1.6310
H -1.4523 0.4710 -2.9428
H 0.3186 2.5104 -1.7621
H 0.6214 1.7198 -3.2794
H 1.9175 1.7057 -2.0333
H -0.6788 -1.8140 0.4072
H 2.0363 -2.9746 -0.4935
H 0.5848 -2.6984 -1.5594
H 0.4981 -3.8658 -0.2126
H 1.9516 -2.1616 1.9728
H 0.4672 -3.1820 2.1340
H 0.4061 -1.4551 2.5958
H 0.9456 0.9733 2.2420
H 0.3607 3.1399 0.1574
H 2.0254 2.6912 0.7535
H 0.7348 3.3380 1.8417
H -1.6401 1.6267 0.6829
H -1.2891 2.0504 2.3531
H -1.4450 0.3228 1.9084
H 5.5977 -0.0957 -2.0515
H 8.0695 -0.2932 -2.1332
H 8.1450 -0.2830 2.1709
H 5.6667 -0.0909 2.1763
