53
 
C 0.9010 -0.6430 -0.0020
N -0.3376 -1.0388 0.0435
C -0.9017 -2.2820 -0.4104
C -1.1536 -1.8041 -1.8545
C -0.1332 -2.4436 -2.7764
C -0.5454 -3.8905 -2.9020
C -0.4788 -4.5776 -1.5290
C -1.2291 -3.8147 -0.4302
C -1.0692 0.0851 0.3033
C -0.2084 1.1486 0.3422
N 1.0443 0.6720 0.1608
C 2.3120 1.4272 0.0244
C 2.2330 2.6917 0.8834
C 2.1373 2.2679 2.3537
C 3.4603 1.6092 2.7405
C 3.7351 0.3425 1.8790
C 3.6300 0.6456 0.3654
Au 2.6584 -1.8814 -0.0135
N 4.3750 -3.0911 -0.0247
C 4.2261 -4.4075 -0.3310
C 5.3197 -5.2751 -0.2590
Cl 5.1296 -6.9766 -0.6397
C 6.5600 -4.7748 0.1444
C 6.6946 -3.4181 0.4468
C 5.5809 -2.5795 0.3427
H -1.5413 -2.2648 0.4664
H -1.0010 -0.7141 -2.0427
H -2.2040 -1.9797 -2.1049
H 0.9104 -2.3344 -2.3785
H -0.1751 -1.9389 -3.7622
H 0.1188 -4.3967 -3.6285
H -1.5861 -3.9027 -3.2991
H 0.5770 -4.6270 -1.2111
H -0.8850 -5.6077 -1.6298
H -1.0955 -4.3666 0.5270
H -2.3476 -3.8527 -0.6508
H -2.1549 0.1361 0.3722
H -0.4931 2.1832 0.4691
H 2.4010 1.7339 -1.0418
H 1.3608 3.3021 0.5814
H 3.1259 3.3348 0.7192
H 1.3015 1.5516 2.5248
H 1.9401 3.1584 2.9822
H 3.4444 1.3521 3.8212
H 4.2606 2.3705 2.5914
H 3.0127 -0.4501 2.1467
H 4.7600 -0.0068 2.1353
H 3.8845 -0.1396 -0.3747
H 4.4578 1.3598 0.1630
H 3.2515 -4.7772 -0.6227
H 7.4138 -5.4349 0.2310
H 7.6476 -3.0248 0.7764
H 5.6698 -1.5375 0.6072
