61
 
P 1.0565 -0.0618 0.0547
C 0.2897 1.6426 -0.5754
C -1.2475 1.7648 -0.6030
C 0.7941 2.8807 0.2235
C 0.7668 1.9763 -2.0098
C 0.5845 -1.4601 -1.2382
C 1.1936 -1.2807 -2.6443
C 1.0950 -2.8576 -0.8058
C -0.9509 -1.6551 -1.4199
C 0.5257 -0.2937 1.9038
C -1.0154 -0.3241 2.0568
C 1.0102 -1.6474 2.4678
C 1.0641 0.7601 2.8889
Au 3.5165 -0.0618 0.0547
P 5.9765 -0.0618 0.0547
C 6.8831 -1.3724 -0.8144
C 6.4683 1.4242 -0.8612
C 6.4590 -0.2590 1.7714
C 5.5040 -0.3460 2.7918
C 5.9172 -0.3742 4.1315
C 7.2794 -0.3215 4.4510
C 8.2328 -0.2547 3.4331
C 7.8246 -0.2218 2.0982
H -1.7078 1.8414 0.3782
H -1.7419 0.9951 -1.1735
H -1.5515 2.7090 -1.1007
H 0.3662 2.9771 1.2198
H 0.4200 3.8215 -0.2465
H 1.9029 2.9588 0.2509
H 0.2829 1.3532 -2.7488
H 1.8768 2.0026 -2.1013
H 0.3961 2.9733 -2.3402
H 2.2993 -1.2773 -2.6017
H 0.8494 -0.4378 -3.2202
H 0.8595 -2.1151 -3.3032
H 2.1963 -2.8768 -0.6902
H 0.8211 -3.6188 -1.5757
H 0.5966 -3.2611 0.0811
H -1.4514 -0.8126 -1.8892
H -1.4681 -1.9617 -0.4927
H -1.1729 -2.4676 -2.1431
H -1.4933 -1.0480 1.3814
H -1.4681 0.6583 1.9440
H -1.3230 -0.6091 3.0843
H 0.5982 -2.4971 1.9255
H 0.6133 -1.8012 3.4992
H 2.1138 -1.7144 2.5218
H 0.6563 1.7522 2.7337
H 2.1706 0.7952 2.8891
H 0.7158 0.5244 3.9211
H 6.5367 -1.3592 -1.8741
H 6.5355 -2.3454 -0.3972
H 7.9793 -1.2924 -0.7663
H 6.0978 1.4150 -1.9019
H 7.5796 1.4831 -0.8522
H 6.0827 2.3137 -0.3186
H 4.4482 -0.3590 2.5549
H 5.1834 -0.4174 4.9252
H 7.5980 -0.3235 5.4858
H 9.2871 -0.2085 3.6775
H 8.5751 -0.1412 1.3216
