17
 
C -0.3280 -1.0820 0.0030
N -1.1284 -0.0400 0.2955
H -2.1418 -0.0731 0.5429
C -0.3510 1.0515 0.1671
Cl -0.8984 2.7001 0.4049
C 0.9208 0.6468 -0.1795
Cl 2.3243 1.6692 -0.4243
N 0.9247 -0.6921 -0.2962
Au -0.9444 -3.1417 0.0167
C -1.5608 -5.2014 0.0303
N -0.7625 -6.2217 -0.3364
C -1.5349 -7.3103 -0.1744
C -2.7795 -6.9072 0.2545
O -2.7586 -5.6029 0.3891
H 1.7329 -1.3076 -0.5362
H -1.2142 -8.3264 -0.3607
H -3.6344 -7.5398 0.4526
