38
 
C 1.0240 -0.6530 -0.0550
N 1.0568 0.6183 -0.0989
C 2.2738 1.4041 -0.2515
C 2.4072 2.3593 0.9401
C 3.5414 0.5135 -0.4013
C -0.2791 1.1632 0.0533
C -1.1936 -0.0688 -0.0586
N -0.2728 -1.1625 0.1053
C -0.6420 -2.5370 0.4048
C -1.5328 -3.1012 -0.6993
C 0.5906 -3.4391 0.6107
Au 2.7802 -1.8697 -0.2955
N 4.4956 -3.0582 -0.5304
C 4.5662 -4.3853 -0.7162
O 5.8190 -4.7775 -0.8160
C 6.5789 -3.7077 -0.6982
C 5.7594 -2.6164 -0.5160
H 2.1817 2.0182 -1.1750
H 2.4462 1.7877 1.8913
H 1.5313 3.0443 0.9779
H 3.3152 2.9879 0.8426
H 3.6982 -0.1354 0.4758
H 4.4360 1.1550 -0.5249
H 3.4707 -0.1314 -1.2951
H -0.5442 1.9224 -0.7128
H -0.3501 1.5985 1.0745
H -1.6051 -0.1526 -1.0897
H -2.0126 -0.0420 0.6905
H -1.2202 -2.5296 1.3586
H -0.9759 -3.1077 -1.6595
H -2.4466 -2.4808 -0.8131
H -1.8474 -4.1359 -0.4469
H 1.1484 -3.5693 -0.3312
H 0.2427 -4.4426 0.9439
H 1.2408 -3.0313 1.4131
H 3.7089 -5.0424 -0.7678
H 7.6600 -3.7022 -0.7394
H 6.0540 -1.5833 -0.3869
