62
 
C 2.3270 0.0340 0.0000
N 1.5482 1.1487 0.0238
C 2.0489 2.5224 0.0022
C 2.9773 2.7593 -1.2025
C 2.2878 2.5869 -2.5642
C 3.2873 2.8520 -3.6913
C 0.2625 0.6993 0.0014
C 0.2799 -0.6684 -0.0064
C -0.8980 -1.4317 0.0088
C -2.1238 -0.7562 0.0068
C -2.1572 0.6517 -0.0103
C -0.9577 1.4018 -0.0106
N 1.5613 -1.0885 -0.0149
C 2.0173 -2.4647 0.0674
C 2.8245 -2.6618 1.3505
C 3.2113 -4.1340 1.4580
C 4.1744 -4.3903 2.6053
Au 4.4769 0.0580 0.0014
C 6.6267 0.0821 0.0028
N 7.3289 1.0340 0.6430
C 6.7941 2.1899 1.3390
C 8.6286 0.7520 0.4587
C 8.7142 -0.3572 -0.3409
N 7.4650 -0.7710 -0.6663
C 7.1748 -1.8526 -1.5967
C 8.2360 -2.5274 -2.2760
C 7.9891 -3.5425 -3.2001
C 6.6808 -3.9081 -3.4848
C 5.6139 -3.2538 -2.8424
C 5.8454 -2.2258 -1.8894
H 2.6404 2.6979 0.9247
H 1.2095 3.2486 -0.0250
H 3.8382 2.0572 -1.1367
H 3.3706 3.7962 -1.1382
H 1.4414 3.3026 -2.6540
H 1.8924 1.5532 -2.6715
H 3.6886 3.8857 -3.6144
H 2.7953 2.7358 -4.6795
H 4.1344 2.1348 -3.6297
H -0.8977 -2.5117 0.0191
H -3.0463 -1.3270 0.0152
H -3.1197 1.1490 -0.0179
H -1.0084 2.4808 -0.0171
H 2.6251 -2.7106 -0.8238
H 1.1524 -3.1577 0.1058
H 2.2262 -2.3682 2.2478
H 3.7245 -2.0106 1.3050
H 3.7034 -4.4500 0.5142
H 2.2870 -4.7381 1.6006
H 5.1228 -3.8436 2.4199
H 4.3935 -5.4779 2.6514
H 3.7417 -4.0625 3.5735
H 5.6800 2.1804 1.2885
H 7.1645 3.1070 0.8256
H 7.1498 2.2028 2.3888
H 9.4613 1.3243 0.8449
H 9.6441 -0.7924 -0.6741
H 9.2768 -2.2866 -2.1217
H 8.8173 -4.0428 -3.7006
H 6.5062 -4.7011 -4.2084
H 4.6101 -3.5605 -3.0984
H 5.0088 -1.7089 -1.3685
