61
 
C 2.3270 0.0340 0.0000
N 1.5473 1.1501 0.0160
C 2.0496 2.5236 0.0155
C 2.8961 2.7326 -1.2442
C 3.4381 4.1554 -1.3917
C 4.3230 4.2654 -2.6262
C 0.2620 0.6993 0.0097
C 0.2795 -0.6679 -0.0047
C -0.8960 -1.4338 -0.0107
C -2.1218 -0.7606 -0.0059
C -2.1566 0.6475 0.0051
C -0.9581 1.3998 0.0132
N 1.5591 -1.0874 -0.0106
C 2.0112 -2.4639 -0.0024
C 2.8444 -2.7028 1.2365
C 3.2562 -4.1669 1.2686
C 4.1924 -4.4252 2.4300
Au 4.4769 0.0580 0.0014
N 6.5767 0.0815 0.0028
C 7.4067 1.0774 0.0845
C 7.0883 2.5025 0.4013
C 5.7927 2.8981 0.7615
C 5.5887 4.2149 1.2476
C 6.6398 5.1364 1.3176
C 7.9138 4.7558 0.9278
C 8.1396 3.4565 0.4852
N 8.7494 0.6412 0.0009
C 8.7505 -0.7547 0.2641
C 7.3148 -1.1603 -0.0780
H 2.6663 2.6847 0.9267
H 1.2083 3.2469 0.0345
H 2.2647 2.5185 -2.1321
H 3.7500 2.0113 -1.2005
H 4.0460 4.4160 -0.5394
H 2.6188 4.9011 -1.4267
H 5.1511 3.5231 -2.5764
H 4.7693 5.2805 -2.6814
H 3.7159 4.0788 -3.5344
H -0.8940 -2.5140 -0.0211
H -3.0423 -1.3342 -0.0118
H -3.1194 1.1430 0.0075
H -1.0077 2.4786 0.0218
H 2.5999 -2.6671 -0.9191
H 1.1497 -3.1619 0.0183
H 2.2483 -2.4604 2.1502
H 3.7382 -2.0334 1.1814
H 3.7798 -4.4171 0.3215
H 2.3507 -4.8112 1.3578
H 5.0899 -3.7808 2.3186
H 4.5006 -5.4898 2.4147
H 3.6877 -4.1965 3.3927
H 4.9703 2.1696 0.6892
H 4.6092 4.5452 1.5668
H 6.4752 6.1465 1.6773
H 8.7393 5.4580 0.9918
H 9.1616 3.2285 0.2381
H 9.5918 1.2162 0.1185
H 8.9169 -0.8308 1.3649
H 9.5408 -1.3203 -0.2681
H 6.9667 -1.9154 0.6587
H 7.2340 -1.5450 -1.1150
