64
 
C 2.3270 0.0340 0.0000
N 1.5465 1.1436 0.0644
C 2.0549 2.5207 0.0349
C 2.9090 2.7260 -1.2354
C 3.5271 4.1246 -1.3471
C 4.3625 4.2257 -2.6269
C 0.2664 0.6793 0.0302
C 0.2980 -0.6911 0.0041
C -0.8673 -1.4675 0.0265
C -2.1002 -0.8061 0.0186
C -2.1494 0.6020 0.0001
C -0.9596 1.3669 0.0137
N 1.5814 -1.0986 -0.0253
C 2.0710 -2.4731 0.0370
C 1.6999 -3.2264 -1.2390
C 2.2038 -2.4706 -2.4760
C 3.7155 -2.2922 -2.4493
Au 4.4769 0.0580 0.0014
C 6.6267 0.0821 0.0028
N 7.4083 -0.3761 -0.9093
C 7.0115 -1.0484 -2.1047
C 8.8003 -0.1648 -0.5871
C 8.7513 0.8041 0.5807
N 7.3872 0.6890 1.0383
C 6.9247 1.1604 2.3033
C 7.8408 1.7195 3.2297
C 7.4217 2.1346 4.4915
C 6.0876 1.9843 4.8599
C 5.1663 1.4367 3.9557
C 5.5713 1.0404 2.6688
H 2.6801 2.6961 0.9350
H 1.2136 3.2458 0.0288
H 2.2743 2.5442 -2.1308
H 3.7422 1.9903 -1.2352
H 4.1850 4.3198 -0.4720
H 2.7270 4.8955 -1.3738
H 5.1790 3.4710 -2.6167
H 4.8168 5.2347 -2.7150
H 3.7243 4.0461 -3.5190
H -0.8469 -2.5466 0.0481
H -3.0158 -1.3872 0.0228
H -3.1163 1.0891 -0.0147
H -1.0204 2.4451 0.0099
H 1.6569 -2.9788 0.9369
H 3.1714 -2.4764 0.1784
H 0.6028 -3.3346 -1.3254
H 2.1141 -4.2559 -1.1898
H 1.7327 -1.4637 -2.5267
H 1.9065 -3.0283 -3.3858
H 4.0211 -1.6519 -1.5844
H 4.0475 -1.7800 -3.3732
H 4.2024 -3.2895 -2.3917
H 5.9274 -1.0740 -2.1663
H 7.4374 -2.0737 -2.0973
H 7.4012 -0.4870 -2.9793
H 9.4037 0.2630 -1.4168
H 9.2216 -1.1441 -0.2675
H 8.8712 1.8517 0.2202
H 9.5393 0.5466 1.3190
H 8.8902 1.8397 2.9952
H 8.1375 2.5650 5.1848
H 5.7712 2.3002 5.8466
H 4.1356 1.3251 4.2585
H 4.8388 0.6456 1.9613
