34
 
N -0.6590 -1.2280 -0.0510
C -1.2742 -0.1311 -0.5412
C -2.5946 -0.3241 -1.2000
C -0.6230 1.1155 -0.4843
C 0.6537 1.1931 0.0882
C 1.2565 0.0425 0.5980
C 0.5775 -1.1721 0.5122
Au -1.5756 -3.1044 -0.2726
N -2.4923 -4.9807 -0.4941
C -1.8205 -6.1308 -0.1497
N -0.5001 -6.0564 0.4279
C 0.4699 -7.1518 0.3445
C -0.0655 -4.8705 1.1515
C -2.4454 -7.3724 -0.4094
C -3.7033 -7.4082 -1.0086
C -4.3478 -6.2227 -1.3446
C -3.7246 -5.0072 -1.0680
H -2.8528 -1.4389 -1.1654
H -2.5194 0.0329 -2.2531
H -3.3511 0.3015 -0.6798
H -1.0772 2.0070 -0.8972
H 1.1832 2.1373 0.1278
H 2.2442 0.0855 1.0408
H 1.0358 -2.0749 0.8896
H 0.0782 -8.0868 -0.0936
H 0.8701 -7.4074 1.3488
H 1.3242 -6.8353 -0.2932
H -0.8420 -4.1217 1.3032
H 0.8335 -4.4326 0.6951
H 0.2058 -5.2154 2.1844
H -1.9955 -8.3194 -0.1579
H -4.1756 -8.3600 -1.2178
H -5.3161 -6.2481 -1.8271
H -4.2033 -4.0785 -1.3485
