23
 
N -0.6590 -1.2280 -0.0510
C 0.4762 -1.1112 0.6832
Cl 1.1499 -2.5411 1.4364
C 1.0163 0.1587 0.9312
C 0.4064 1.2835 0.3656
C -0.7377 1.1313 -0.4190
C -1.2752 -0.1444 -0.5936
Au -1.5756 -3.1044 -0.2726
N -2.4923 -4.9807 -0.4941
C -1.8022 -6.0853 -0.1040
C -2.3324 -7.3589 -0.3196
C -3.5652 -7.4831 -0.9645
Cl -4.2219 -9.0742 -1.3036
C -4.2624 -6.3347 -1.3536
C -3.7099 -5.0759 -1.0918
H 1.8838 0.2789 1.5670
H 0.8109 2.2722 0.5416
H -1.2132 1.9918 -0.8728
H -2.1689 -0.2827 -1.1885
H -0.8387 -5.9709 0.3752
H -1.7810 -8.2370 -0.0075
H -5.2103 -6.4175 -1.8699
H -4.2196 -4.1796 -1.4191
