54
 
P 1.0408 -0.0607 -0.0682
O -0.1237 -0.3698 1.1260
C 0.4011 -1.4915 1.8525
O 0.5384 1.5103 -0.5035
C 1.1536 1.8506 -1.7253
O 0.6991 -1.5547 -0.8313
C 1.2980 -1.6012 -2.0858
Au 3.5008 -0.0607 -0.0682
P 5.9608 -0.0607 -0.0682
C 6.5408 1.6220 -0.4545
C 5.5183 2.5814 -0.6540
C 5.8198 3.9188 -0.9360
C 7.1495 4.3233 -1.0162
C 8.1728 3.3865 -0.8306
C 7.8753 2.0378 -0.5583
C 6.4705 -0.3997 1.6216
C 5.5520 -0.7463 2.6237
C 6.0101 -1.0304 3.9203
C 7.3777 -0.9720 4.2143
C 8.2927 -0.6586 3.2096
C 7.8411 -0.3853 1.9198
C 6.5635 -1.1195 -1.4326
C 6.1763 -2.5512 -1.1229
C 4.8148 -2.8854 -1.0336
C 4.4375 -4.1978 -0.6955
C 5.4091 -5.1695 -0.4168
C 6.7645 -4.8464 -0.5081
C 7.1512 -3.5474 -0.8693
H 0.0947 -1.4808 2.9157
H 1.5257 -1.5648 1.8989
H 0.0314 -2.4336 1.3934
H 0.6932 2.7842 -2.1082
H 0.9749 1.1194 -2.5357
H 2.2378 2.0335 -1.5824
H 1.1980 -2.6416 -2.4596
H 2.3677 -1.3437 -2.0165
H 0.7587 -0.9708 -2.8131
H 4.4727 2.2991 -0.5858
H 5.0252 4.6442 -1.0867
H 7.3847 5.3621 -1.2236
H 9.2008 3.7133 -0.8979
H 8.6844 1.3422 -0.4309
H 4.4937 -0.8114 2.4050
H 5.3097 -1.2984 4.7004
H 7.7332 -1.1796 5.2155
H 9.3536 -0.6302 3.4246
H 8.5690 -0.1692 1.1544
H 7.6741 -1.0382 -1.4401
H 6.1790 -0.7878 -2.4173
H 4.0669 -2.0943 -1.1922
H 3.3919 -4.4625 -0.6226
H 5.1128 -6.1707 -0.1176
H 7.5126 -5.6024 -0.2856
H 8.2102 -3.3216 -0.9195
