51
 
P 1.0826 -0.0560 0.0061
O -0.0534 -0.8326 0.9980
C 0.4835 -2.1515 1.1831
O 0.5838 1.5551 0.2617
C 1.1785 2.3609 -0.7337
O 0.7360 -1.1122 -1.2974
C 1.3238 -0.6430 -2.4705
Au 3.5426 -0.0560 0.0061
P 6.0026 -0.0560 0.0061
C 6.8392 -0.5067 1.5583
C 7.6050 -1.6741 1.7200
C 8.1011 -2.0257 2.9854
C 7.8355 -1.2236 4.0994
F 8.3011 -1.5779 5.3240
C 7.0727 -0.0659 3.9533
C 6.5744 0.2878 2.6948
C 6.4189 -1.2780 -1.2859
C 5.4146 -1.9128 -2.0367
C 5.7498 -2.8288 -3.0477
C 7.0890 -3.1203 -3.3209
F 7.4098 -4.0238 -4.2824
C 8.0974 -2.4737 -2.6062
C 7.7675 -1.5512 -1.6042
C 6.5506 1.6552 -0.2054
C 5.6397 2.7095 -0.3547
C 6.1014 3.9979 -0.6701
C 7.4709 4.2377 -0.8319
F 7.9128 5.4717 -1.1832
C 8.3845 3.1997 -0.6454
C 7.9282 1.9164 -0.3304
H 0.1869 -2.5936 2.1533
H 1.6095 -2.2282 1.1847
H 0.1093 -2.8163 0.3753
H 0.7198 3.3701 -0.7041
H 0.9843 2.0243 -1.7689
H 2.2659 2.4670 -0.5529
H 1.1759 -1.4222 -3.2458
H 2.4145 -0.4927 -2.3377
H 0.7917 0.2426 -2.8605
H 7.7919 -2.3399 0.8947
H 8.6762 -2.9339 3.1090
H 6.8513 0.5481 4.8194
H 5.9557 1.1740 2.6193
H 4.3740 -1.6952 -1.8545
H 4.9720 -3.3160 -3.6223
H 9.1363 -2.6884 -2.8303
H 8.5739 -1.0608 -1.0775
H 4.5793 2.5305 -0.2644
H 5.3985 4.8079 -0.8158
H 9.4456 3.3827 -0.7696
H 8.6544 1.1232 -0.2177
