39
 
P 1.0506 0.0861 0.0058
O -0.1256 1.2952 -0.1693
C 0.3987 2.4097 0.5677
O 0.5698 -0.9040 -1.2960
C 1.1680 -2.1695 -1.1251
O 0.7213 -0.0401 1.6824
C 1.3336 -1.1716 2.2180
Au 3.5106 0.0861 0.0058
P 5.9706 0.0861 0.0058
C 6.8735 1.1915 1.1396
C 6.4419 -1.5369 0.6673
C 6.4946 0.5944 -1.6806
C 5.9710 1.9949 -2.0061
C 8.0376 0.5697 -1.7683
C 5.9330 -0.4212 -2.6908
H 0.0850 3.3780 0.1340
H 1.5231 2.4870 0.6067
H 0.0381 2.3635 1.6184
H 0.7083 -2.8819 -1.8404
H 0.9685 -2.6281 -0.1381
H 2.2582 -2.1204 -1.3297
H 1.1953 -1.1246 3.3182
H 2.4258 -1.1747 2.0126
H 0.8085 -2.0929 1.9069
H 6.5117 0.9811 2.1704
H 6.5497 2.2347 0.9248
H 7.9700 1.1100 1.1040
H 6.0588 -1.6980 1.6909
H 7.5533 -1.6008 0.6645
H 6.0612 -2.3227 -0.0184
H 6.3817 2.7450 -1.3008
H 4.8616 2.0105 -1.9446
H 6.2817 2.2886 -3.0321
H 8.4988 1.2921 -1.0652
H 8.3830 0.8419 -2.7876
H 8.4334 -0.4429 -1.5303
H 4.8239 -0.4467 -2.6501
H 6.3132 -1.4446 -2.4752
H 6.2438 -0.1575 -3.7253
