39
 
O 0.9254 0.0554 -0.0369
C 0.5316 0.3322 1.2700
C 1.0502 -0.7541 2.1969
C 1.0533 1.6995 1.6784
Au 2.9754 0.0554 -0.0369
P 5.4354 0.0554 -0.0369
C 6.3404 1.2876 -1.0266
C 5.9973 0.4889 1.6177
C 5.0958 0.7051 2.6658
C 5.5820 1.0275 3.9457
C 6.9611 1.1321 4.1749
C 7.8590 0.8987 3.1343
C 7.3806 0.5729 1.8661
C 5.8960 -1.4841 -0.8521
C 4.9346 -2.4233 -1.2540
C 5.3425 -3.6397 -1.8249
C 6.7034 -3.9160 -2.0014
C 7.6602 -2.9813 -1.6063
C 7.2591 -1.7757 -1.0303
H -0.5804 0.3412 1.3079
H 2.1618 -0.7686 2.1495
H 0.6461 -1.7400 1.8804
H 0.7134 -0.5578 3.2383
H 2.1654 1.6889 1.6308
H 0.7145 1.9433 2.7092
H 0.6531 2.4743 0.9891
H 6.0147 2.2946 -0.6801
H 5.9948 1.1930 -2.0799
H 7.4376 1.2100 -0.9793
H 4.0297 0.6128 2.4858
H 4.8966 1.1969 4.7650
H 7.3392 1.3880 5.1573
H 8.9270 0.9684 3.3067
H 8.0997 0.3902 1.0808
H 3.8796 -2.2279 -1.1092
H 4.6079 -4.3757 -2.1247
H 7.0201 -4.8549 -2.4383
H 8.7147 -3.1917 -1.7361
H 8.0200 -1.0758 -0.7179
