33
 
N -1.3927 -0.0912 -0.0548
C -0.7202 -0.8028 0.9267
C 0.6008 -0.5050 1.2594
C 1.3291 0.2948 0.4631
O 2.6348 0.6094 0.7877
C 3.2267 0.1048 1.9515
C 0.7176 0.7869 -0.6967
C -0.6693 0.7128 -0.8687
Au -3.4743 -0.2022 -0.2721
N -5.5424 -0.2797 -0.5165
C -6.1523 0.6483 -1.2812
C -5.3512 1.7360 -1.9387
C -7.5273 0.5667 -1.4273
C -8.1172 -0.6815 -1.2140
C -7.5678 -1.4779 -0.2367
C -6.2816 -1.2507 0.1268
C -5.6597 -2.1082 1.1797
H -1.2036 -1.5887 1.4344
H 1.0513 -0.8908 2.1158
H 4.2454 0.4430 2.0510
H 3.2201 -0.9801 1.9307
H 2.6649 0.4334 2.8197
H 1.3181 1.2306 -1.4304
H -1.1476 1.2790 -1.6153
H -4.3007 1.6206 -1.7071
H -5.6852 2.7028 -1.6050
H -5.4742 1.6747 -3.0164
H -8.0924 1.4053 -1.7137
H -8.9645 -0.9947 -1.7578
H -8.1123 -2.2388 0.2304
H -6.3709 -2.8289 1.5629
H -5.3334 -1.4774 1.9971
H -4.8088 -2.6329 0.7794
