37
 
P 1.0617 0.0636 -0.0463
O 0.0223 -0.3300 1.2600
C 0.5454 -1.5738 1.7533
C -0.1446 -2.0588 3.0155
O 0.5475 1.6458 -0.4174
C 0.8131 2.5236 0.6344
C 2.3153 2.6818 0.8623
O 0.5837 -1.2663 -1.0273
C -0.8388 -1.2079 -1.1603
C -1.3745 -2.4113 -1.9091
Au 3.5217 0.0636 -0.0463
N 5.6217 0.0636 -0.0463
C 6.2636 -0.9693 -0.6547
C 7.6564 -1.0672 -0.5906
Cl 8.4873 -2.4142 -1.3472
C 8.3759 -0.0917 0.1039
C 7.6980 0.9653 0.7166
C 6.3031 1.0251 0.6322
H 1.6412 -1.5265 1.9770
H 0.3684 -2.3913 1.0202
H 0.1132 -1.4159 3.8798
H 0.2072 -3.0954 3.2348
H -1.2410 -2.0927 2.8606
H 0.2516 2.2382 1.5497
H 0.4074 3.5099 0.3169
H 2.7669 1.7429 1.2380
H 2.4810 3.4690 1.6199
H 2.7995 2.9626 -0.0969
H -1.1562 -0.2798 -1.6825
H -1.3739 -1.2776 -0.1881
H -0.9891 -2.4170 -2.9451
H -2.4871 -2.3537 -1.9307
H -1.0879 -3.3472 -1.3825
H 5.6844 -1.7260 -1.1679
H 9.4542 -0.1577 0.1769
H 8.2474 1.7195 1.2648
H 5.7610 1.8220 1.1236
