27
 
N -1.3833 -0.1272 -0.0565
C -0.7330 1.1328 0.0971
C 0.6584 1.2108 -0.0481
C 1.3791 0.1126 -0.0515
O 2.7765 0.1841 -0.2094
C 3.4128 1.4376 -0.3657
C 0.7422 -1.1258 0.1042
C -0.6555 -1.2284 -0.0484
Au -3.4724 -0.1821 -0.2847
N -5.5573 -0.2895 -0.5344
C -6.3654 0.7276 -0.0850
F -5.8292 1.7796 0.5278
C -7.6854 0.6704 -0.2420
C -8.2638 -0.3582 -0.8502
F -9.5862 -0.3711 -0.9941
C -7.5090 -1.4077 -1.3313
C -6.1312 -1.3794 -1.1704
F -5.3766 -2.3822 -1.6237
H -1.2765 1.9927 0.3151
H 1.1273 2.1264 -0.1528
H 4.4708 1.3011 -0.4712
H 3.2186 2.0504 0.4947
H 3.0300 1.9282 -1.2413
H 1.3048 -1.9677 0.3265
H -1.1108 -2.1523 -0.1582
H -8.2714 1.4416 0.1138
H -7.9683 -2.2061 -1.8043
