72
 
P 0.9753 0.0919 0.0306
C 0.3113 -0.9242 1.4449
C 0.7314 -2.4036 1.3455
C 0.7335 -2.8983 2.7794
C 1.4061 -1.7737 3.5300
C 1.0592 -0.5047 2.7400
C 0.3441 1.8070 0.3314
C 0.7742 2.5353 1.5895
C 0.2191 3.9268 1.3179
C 0.5978 4.1953 -0.1330
C 0.7054 2.8043 -0.7802
C 0.4689 -0.6923 -1.5760
C 1.0000 0.0608 -2.8024
C 0.7870 -0.9348 -3.9294
C 1.2204 -2.2517 -3.3034
C 0.9671 -2.1139 -1.7941
Au 3.4353 0.0919 0.0306
P 5.8953 0.0919 0.0306
O 7.0002 -1.0312 -0.6069
C 6.5588 -2.3489 -0.2096
C 5.0471 -2.7095 -0.3600
O 6.3524 1.4825 -0.8420
C 6.0310 2.6064 -0.0375
C 6.6202 3.8683 -0.6605
C 6.3673 -0.1845 1.7572
C 5.4157 -0.3938 2.7627
C 5.8379 -0.5836 4.0905
C 7.2033 -0.5801 4.4076
C 8.1519 -0.3967 3.4014
C 7.7363 -0.1958 2.0849
H -0.7899 -0.8860 1.5975
H 1.7777 -2.4768 0.9770
H 0.0504 -3.0260 0.7321
H 1.2494 -3.8775 2.9170
H -0.3144 -2.9818 3.1297
H 2.5104 -1.9223 3.4663
H 1.1233 -1.7466 4.6044
H 2.0459 -0.0548 2.4779
H 0.4967 0.2166 3.3556
H -0.7700 1.7462 0.3494
H 1.8823 2.5583 1.6567
H 0.3234 2.1322 2.5101
H 0.5488 4.7142 2.0277
H -0.8930 3.8601 1.3723
H 1.6080 4.6583 -0.1635
H -0.1256 4.8849 -0.6234
H 1.7676 2.6613 -1.0821
H 0.0555 2.7049 -1.6743
H -0.6458 -0.7025 -1.6617
H 2.0894 0.2329 -2.6848
H 0.4919 1.0238 -3.0202
H 1.3509 -0.6860 -4.8578
H -0.2970 -0.9866 -4.1750
H 2.3223 -2.3319 -3.4267
H 0.7494 -3.1379 -3.7798
H 1.9473 -2.2364 -1.2916
H 0.2309 -2.8497 -1.4143
H 6.8451 -2.5413 0.8460
H 7.1060 -3.0947 -0.8177
H 4.3784 -2.1011 0.2950
H 4.8891 -3.7625 -0.0357
H 4.7114 -2.6144 -1.4122
H 6.4396 2.5443 1.0037
H 4.9266 2.7269 0.0023
H 7.7308 3.8341 -0.6363
H 6.2868 4.7735 -0.1048
H 6.2811 3.9538 -1.7124
H 4.3602 -0.4041 2.5138
H 5.1125 -0.7325 4.8792
H 7.5306 -0.7221 5.4308
H 9.2094 -0.4059 3.6390
H 8.4860 -0.0564 1.3156
