60
 
P 0.9452 -0.0184 0.0816
C 0.0596 0.2995 -1.4737
C 0.4531 -1.7556 0.1981
C 1.4043 -2.7740 0.3326
C 0.9924 -4.1115 0.4296
C -0.3682 -4.4378 0.4082
C -1.3248 -3.4250 0.3346
C -0.9188 -2.0900 0.2400
C 0.5710 1.3034 1.2230
C -0.7640 1.5662 1.5882
C -1.0624 2.5831 2.4986
C -0.0287 3.3409 3.0511
C 1.3096 3.0677 2.7050
C 1.6242 2.0343 1.7872
Au 3.4052 -0.0184 0.0816
P 5.8652 -0.0184 0.0816
N 6.8423 1.3065 -0.5936
C 6.2842 1.5536 -1.9450
C 6.5641 2.5601 0.1658
O 6.2316 -1.2815 -0.9057
C 6.2761 -2.4765 -0.2831
C 5.4471 -3.4934 -0.7729
C 5.4232 -4.7482 -0.1665
C 6.2521 -5.0125 0.9206
C 7.1034 -4.0194 1.4118
C 7.1222 -2.7241 0.8440
C 8.0573 -1.6987 1.4436
C 9.3880 -2.1091 1.6776
C 10.3351 -1.2269 2.1990
C 9.9686 0.0696 2.5447
C 8.6583 0.4955 2.3645
C 7.6981 -0.3479 1.8003
O 6.4706 0.1893 1.5998
H -1.0385 0.2932 -1.3902
H 0.4180 -0.4219 -2.2422
H 0.3964 1.3040 -1.8187
H 2.4582 -2.5341 0.3728
H 1.7277 -4.8989 0.5210
H -0.6821 -5.4735 0.4626
H -2.3800 -3.6758 0.3496
H -1.6817 -1.3220 0.2000
H -1.5769 0.9785 1.1796
H -2.0941 2.7815 2.7774
H -0.2729 4.1330 3.7541
H 2.0881 3.6635 3.1615
H 2.6690 1.7597 1.4902
H 6.4299 0.6778 -2.6060
H 6.7668 2.4310 -2.4293
H 5.1831 1.7724 -1.9125
H 6.8777 2.4980 1.2230
H 5.4806 2.8431 0.1617
H 7.1289 3.4157 -0.2657
H 4.7993 -3.2990 -1.6181
H 4.7599 -5.5176 -0.5407
H 6.2312 -5.9900 1.3876
H 7.7286 -4.2607 2.2637
H 9.7123 -3.1104 1.4175
H 11.3597 -1.5481 2.3320
H 10.7016 0.7551 2.9465
H 8.3911 1.5072 2.6353
