42
 
P 0.9435 0.0799 0.0206
C -0.0278 0.0392 1.5579
C 0.4963 1.7841 -0.4016
C 1.4789 2.7519 -0.6446
C 1.1066 4.0577 -1.0035
C -0.2443 4.4016 -1.1269
C -1.2287 3.4348 -0.9219
C -0.8627 2.1307 -0.5702
C 0.6345 -1.4596 -0.8368
C -0.6740 -1.8386 -1.1891
C -0.8963 -3.0204 -1.9041
C 0.1844 -3.8266 -2.2683
C 1.4918 -3.4476 -1.9238
C 1.7255 -2.2563 -1.2087
Au 3.4035 0.0799 0.0206
N 5.5035 0.0799 0.0206
C 6.1740 -0.9778 -0.5006
N 7.5277 -1.0309 -0.4147
C 8.2347 -0.0330 0.1867
O 9.5807 -0.1125 0.3087
C 10.3137 -1.2195 -0.0654
C 7.5574 1.0752 0.7032
C 6.1662 1.1095 0.6056
H -1.1194 0.0340 1.4082
H 0.2893 0.8902 2.2015
H 0.2757 -0.8859 2.0988
H 2.5272 2.4920 -0.5685
H 1.8636 4.8071 -1.1901
H -0.5292 5.4133 -1.3925
H -2.2747 3.6968 -1.0400
H -1.6458 1.3947 -0.4365
H -1.5214 -1.2172 -0.9274
H -1.9046 -3.3094 -2.1828
H 0.0038 -4.7407 -2.8243
H 2.3161 -4.0807 -2.2235
H 2.7426 -1.9286 -0.9446
H 5.6277 -1.7893 -0.9611
H 11.3890 -1.0332 0.1319
H 10.1749 -1.4235 -1.1481
H 9.9938 -2.1064 0.5248
H 8.0923 1.8794 1.1929
H 5.6074 1.9359 1.0254
