59
 
P 1.0846 0.0328 -0.0421
C 0.4429 -0.4599 1.6383
C 0.9258 -1.8715 2.0072
C 0.8686 -1.8878 3.5292
C 1.4703 -0.5559 3.9197
C 1.1389 0.3780 2.7525
C 0.4742 1.7637 -0.2914
C 1.0456 2.7761 0.6661
C 0.6250 4.0873 0.0466
C 0.9050 3.8886 -1.4337
C 0.7732 2.3756 -1.6740
C 0.5655 -1.2876 -1.2275
C -0.9593 -1.3660 -1.3935
C -1.1120 -2.0970 -2.7227
C -0.0623 -1.4436 -3.6101
C 1.0554 -0.9899 -2.6580
Au 3.5446 0.0328 -0.0421
C 5.6946 0.0328 -0.0421
N 6.5590 1.0948 -0.0479
C 6.3265 2.5358 -0.0511
C 7.8026 0.5627 -0.0500
Cl 9.3128 1.4683 -0.0587
C 7.7040 -0.7999 -0.0441
Cl 9.0618 -1.9217 -0.0449
N 6.3972 -1.1312 -0.0375
C 5.8646 -2.4882 -0.0265
H -0.6615 -0.4192 1.7647
H 1.9913 -1.9959 1.7062
H 0.3128 -2.6816 1.5593
H 1.3937 -2.7471 4.0051
H -0.1955 -1.8906 3.8418
H 2.5810 -0.6533 3.9732
H 1.1107 -0.1992 4.9105
H 2.1263 0.7497 2.3871
H 0.5365 1.2289 3.1166
H -0.6392 1.7701 -0.1972
H 2.1515 2.6826 0.6662
H 0.6230 2.7035 1.6753
H 1.1468 4.9593 0.4942
H -0.4730 4.2017 0.1913
H 1.9705 4.1517 -1.6153
H 0.2668 4.5345 -2.0751
H 1.7620 2.0399 -2.0533
H -0.0120 2.1185 -2.4241
H 0.9366 -2.2966 -0.9454
H -1.3958 -0.3502 -1.5123
H -1.4716 -1.8846 -0.5527
H -2.1375 -2.0484 -3.1579
H -0.8311 -3.1601 -2.5785
H -0.5161 -0.5247 -4.0535
H 0.2771 -2.0878 -4.4489
H 1.1602 0.0904 -2.8471
H 2.0497 -1.4405 -2.8517
H 5.2498 2.7839 -0.0480
H 6.8143 2.9822 -0.9480
H 6.8196 2.9857 0.8415
H 6.6910 -3.2333 -0.0244
H 5.2519 -2.6601 -0.9332
H 5.2592 -2.6460 0.8881
