37
 
O -0.3280 -1.0820 0.0030
C 0.7977 -0.6166 -0.4740
N 0.8490 0.7263 -0.3531
C -0.3286 1.0580 0.2193
C -1.0525 -0.0915 0.4474
Au -0.9157 -3.0459 0.0160
P -1.6210 -5.4026 0.0316
N -0.4929 -6.5857 0.7786
C -0.6744 -8.0351 0.8162
C 0.9159 -6.1954 0.5415
N -3.0841 -5.5283 1.0465
C -2.9562 -5.0352 2.4199
C -4.1891 -4.8224 0.3712
N -1.5578 -5.9074 -1.6950
C -0.2822 -5.9135 -2.4039
C -2.3627 -7.1095 -2.0048
H 1.5896 -1.2253 -0.8887
H -0.6430 2.0691 0.4414
H -2.0453 -0.1791 0.8689
H -1.6425 -8.2986 1.2782
H 0.1139 -8.4661 1.4809
H -0.4915 -8.5065 -0.1643
H 1.0405 -5.0880 0.5340
H 1.3216 -6.6021 -0.4015
H 1.5726 -6.5903 1.3436
H -2.1723 -5.5922 2.9664
H -3.9150 -5.2372 2.9580
H -2.7797 -3.9384 2.4521
H -4.3931 -5.2655 -0.6247
H -3.9629 -3.7398 0.2403
H -5.1348 -4.9210 0.9498
H 0.2931 -4.9939 -2.1829
H -0.4885 -5.9263 -3.4985
H 0.2817 -6.8464 -2.2085
H -3.3986 -7.0210 -1.6246
H -1.9227 -8.0396 -1.6123
H -2.4437 -7.2489 -3.1057
