30
 
O -0.3280 -1.0820 0.0030
C 0.9049 -0.6450 -0.0104
N 0.9334 0.7040 -0.0275
C -0.3671 1.0686 -0.0066
C -1.1475 -0.0660 0.0014
Au -0.9157 -3.0459 0.0160
N -1.5178 -5.0577 0.0293
C -2.6964 -5.4514 -0.2978
C -3.7511 -4.5460 -0.8848
C -4.6894 -5.0887 -1.7988
C -5.6001 -4.2676 -2.4778
C -5.5976 -2.8921 -2.2606
C -4.7098 -2.3392 -1.3376
C -3.8002 -3.1509 -0.6422
N -2.7820 -6.8574 -0.2815
C -1.4685 -7.3913 -0.0309
C -0.6486 -6.1542 0.3599
H 1.7819 -1.2767 -0.0494
H -0.7212 2.0908 0.0082
H -2.2272 -0.1299 0.0362
H -4.7060 -6.1441 -2.0327
H -6.2977 -4.6940 -3.1907
H -6.2897 -2.2547 -2.8008
H -4.7272 -1.2711 -1.1629
H -3.1975 -2.6613 0.0863
H -3.5916 -7.4216 -0.5741
H -1.1020 -7.8061 -0.9949
H -1.4466 -8.1706 0.7598
H 0.3300 -6.1190 -0.1614
H -0.4993 -6.1127 1.4620
