45
 
P 1.1305 -0.0274 0.2224
F -0.2538 0.7619 -0.2678
F 0.6768 -1.5189 -0.4230
F 0.8603 0.2248 1.8629
Cu 3.5369 -0.1454 0.2682
P 5.9128 -0.1335 -0.0286
C 6.4529 -0.6576 -1.7038
C 7.5625 -0.1293 -2.3740
C 7.8027 -0.4543 -3.7220
C 6.9697 -1.3475 -4.4046
C 5.8873 -1.9115 -3.7482
C 5.6059 -1.5437 -2.4317
C 6.4180 1.6100 0.1699
C 5.4898 2.6551 0.3071
C 5.9465 3.9885 0.3967
C 7.3176 4.2754 0.4236
C 8.2405 3.2352 0.3912
C 7.7965 1.9183 0.2531
C 6.5247 -1.2606 1.3102
C 6.1009 -0.8192 2.7461
C 4.5882 -0.8600 2.8819
C 4.0623 -2.2801 2.5135
C 4.5521 -2.8096 1.1396
C 6.0834 -2.7040 1.0734
H 8.2262 0.5503 -1.8809
H 8.6341 -0.0084 -4.2457
H 7.1447 -1.6063 -5.4428
H 5.2467 -2.6196 -4.2649
H 4.7004 -1.9676 -2.0255
H 4.4246 2.4345 0.3307
H 5.2458 4.8104 0.4454
H 7.6701 5.3000 0.4840
H 9.3029 3.4480 0.4597
H 8.5499 1.1440 0.2172
H 7.6309 -1.1948 1.2960
H 6.4653 0.2046 2.9979
H 6.5371 -1.5130 3.5047
H 4.2295 -0.0241 2.2546
H 4.2722 -0.6056 3.9195
H 2.9559 -2.3065 2.5440
H 4.4351 -2.9809 3.2958
H 4.0851 -2.2563 0.2793
H 4.2626 -3.8826 1.0270
H 6.4601 -3.0526 0.0922
H 6.5452 -3.3491 1.8595
