16
 
P 6.9520 -3.5648 1.9004
F 7.2775 -5.1855 2.1511
F 8.5115 -3.0802 2.2812
F 5.8162 -3.5344 3.1405
Cu 6.1840 -1.5326 0.8625
O 5.5671 0.0435 -0.0713
C 6.0460 1.0995 0.6860
C 5.5140 0.9991 2.1123
C 7.5602 1.0388 0.6725
H 5.6882 2.0488 0.2306
H 5.8670 0.0616 2.5929
H 4.4038 1.0085 2.1118
H 5.8769 1.8632 2.7075
H 7.8735 0.0427 1.0862
H 7.9642 1.8938 1.2599
H 7.9270 1.1448 -0.3713
