29
 
P 1.2263 0.0555 -0.0930
F -0.2512 -0.7021 0.0211
F 0.8661 1.2334 1.0542
F 0.9987 0.5032 -1.7053
Cu 3.6278 0.1164 -0.0218
C 5.7112 0.1088 0.0466
N 6.4089 -0.9649 -0.0622
C 5.8679 -2.3061 -0.1442
C 7.8232 -0.6690 -0.0365
C 7.8592 0.8553 -0.2267
N 6.5225 1.2609 0.1466
C 6.0979 2.5791 0.5168
C 7.0086 3.6580 0.5599
C 6.5901 4.9258 0.9900
C 5.2630 5.1388 1.3652
C 4.3498 4.0895 1.3073
C 4.7648 2.8225 0.8976
H 4.7561 -2.2942 -0.1375
H 6.2282 -2.9132 0.7168
H 6.2161 -2.7947 -1.0795
H 8.4050 -1.1838 -0.8330
H 8.2163 -0.9565 0.9647
H 7.9547 1.0744 -1.3155
H 8.6929 1.3290 0.3290
H 8.0440 3.5294 0.2763
H 7.2918 5.7484 1.0389
H 4.9399 6.1155 1.7021
H 3.3177 4.2530 1.5895
H 4.0365 2.0483 0.8959
