24
 
P 1.2139 0.1230 0.1813
F -0.2833 0.6829 -0.2841
F 0.8638 -1.4936 -0.1224
F 1.0443 0.6423 1.7741
Cu 3.5979 0.0158 0.1700
N 5.6026 -0.0190 0.0477
C 6.2540 1.1688 -0.0042
C 7.6361 1.2151 -0.1733
C 8.3931 0.0220 -0.2863
N 9.8224 0.0449 -0.5660
C 10.5787 1.2815 -0.7724
C 10.6104 -1.1701 -0.7627
C 7.6679 -1.1944 -0.1533
C 6.2785 -1.1887 -0.0089
H 5.6941 2.0928 0.0623
H 8.0522 2.2026 -0.2301
H 10.0132 2.2155 -0.6702
H 10.9938 1.2986 -1.8038
H 11.4136 1.3428 -0.0447
H 10.0639 -2.1141 -0.6577
H 11.4428 -1.2041 -0.0307
H 11.0260 -1.1820 -1.7934
H 8.1130 -2.1701 -0.1801
H 5.7371 -2.1228 0.0407
