59
 
P 0.9736 -0.0814 0.0517
C 0.1697 -1.4399 0.9730
C -1.2030 -1.5123 1.1907
C -1.7412 -2.5447 1.9789
C -0.9149 -3.5205 2.5493
F -1.4411 -4.5058 3.3214
C 0.4559 -3.4721 2.3300
C 0.9904 -2.4357 1.5504
C 0.3532 1.4303 0.8401
C 0.7756 1.8488 2.1205
C 0.1918 2.9793 2.7215
C -0.8236 3.6801 2.0629
F -1.4086 4.7541 2.6521
C -1.2458 3.2652 0.7991
C -0.6562 2.1534 0.1902
C 0.5329 -0.4801 -1.6559
C -0.1944 -1.6292 -2.0390
C -0.5269 -1.8323 -3.3844
C -0.1465 -0.8974 -4.3511
F -0.4643 -1.0964 -5.6540
C 0.5556 0.2481 -3.9734
C 0.8926 0.4527 -2.6349
Cu 3.4336 -0.0814 0.0517
C 5.5836 -0.0814 0.0517
N 6.2797 0.7587 -0.6203
C 5.7329 1.6505 -1.6136
C 7.6912 0.5092 -0.4552
C 7.7278 -0.3877 0.7749
N 6.4144 -0.9841 0.7680
C 5.9876 -2.0014 1.6716
C 6.8644 -2.5070 2.6582
C 6.4469 -3.5014 3.5454
C 5.1576 -4.0157 3.4538
C 4.2878 -3.5368 2.4747
C 4.6969 -2.5278 1.5865
H -1.8419 -0.7559 0.7718
H -2.8026 -2.5815 2.1600
H 1.0914 -4.2323 2.7784
H 2.0453 -2.4064 1.4038
H 1.5427 1.3096 2.6622
H 0.5103 3.3088 3.7042
H -2.0419 3.7965 0.2936
H -1.0156 1.8342 -0.7772
H -0.5198 -2.3703 -1.3232
H -1.0854 -2.7125 -3.6783
H 0.8362 0.9840 -4.7151
H 1.4231 1.3536 -2.3553
H 4.6212 1.5976 -1.6365
H 6.1075 1.3173 -2.6104
H 6.0783 2.6887 -1.4435
H 8.3115 1.4202 -0.3208
H 8.0324 -0.0665 -1.3453
H 7.7750 0.2553 1.6854
H 8.5786 -1.1001 0.7658
H 7.8727 -2.1333 2.7589
H 7.1238 -3.8764 4.3033
H 4.8354 -4.7905 4.1383
H 3.3041 -3.9670 2.4186
H 4.0420 -2.1623 0.8183
