80
 
P 1.0266 0.0563 0.0782
C 0.1485 0.3240 -1.5208
C 0.8804 0.4487 -2.7624
C 2.3771 0.3293 -2.9134
C 0.1944 0.6976 -3.9647
C -1.1872 0.8073 -3.9785
C -1.9061 0.6429 -2.7954
C -1.2484 0.3976 -1.5806
C 0.7635 -1.6440 0.8060
C 1.6586 -2.2115 1.7647
C 2.8008 -1.4639 2.3575
C 1.4944 -3.5419 2.2108
C 0.4376 -4.3195 1.7583
C -0.5001 -3.7594 0.8974
C -0.3455 -2.4403 0.4266
C 0.5173 1.6549 0.8374
C 1.2354 2.8824 0.8213
C 2.5974 3.0518 0.2314
C 0.6734 4.0292 1.4263
C -0.5398 3.9670 2.1063
C -1.2142 2.7567 2.1976
C -0.6998 1.6198 1.5624
Cu 3.4866 0.0563 0.0782
P 5.9466 0.0563 0.0782
C 6.6843 0.6519 1.6848
C 6.1759 -0.2779 2.7992
C 8.2139 0.6674 1.6851
C 6.1037 2.0556 2.0568
C 6.5597 -1.6371 -0.0802
C 7.7789 -1.8280 -0.7664
C 8.2239 -3.1162 -1.0879
C 7.4599 -4.2255 -0.7234
C 6.2517 -4.0433 -0.0477
C 5.7992 -2.7547 0.2484
C 6.2885 1.2794 -1.2499
C 7.0661 2.4511 -1.1180
C 7.3119 3.2856 -2.2112
C 6.8084 2.9652 -3.4676
C 6.0659 1.7977 -3.6349
C 5.8106 0.9622 -2.5379
H 2.8841 0.0482 -1.9833
H 2.7858 1.2959 -3.2774
H 2.6334 -0.4456 -3.6769
H 0.7351 0.8058 -4.9038
H -1.6969 1.0123 -4.9137
H -2.9826 0.7146 -2.8226
H -1.8322 0.2730 -0.6849
H 2.9123 -0.4598 1.9563
H 3.7237 -2.0211 2.2259
H 2.6520 -1.3784 3.4570
H 2.1977 -3.9881 2.9099
H 0.3382 -5.3505 2.0903
H -1.3426 -4.3655 0.5865
H -1.1047 -2.0599 -0.2363
H 3.0526 2.1033 -0.1003
H 3.2483 3.4887 1.0245
H 2.5502 3.7668 -0.6117
H 1.1934 4.9795 1.3975
H -0.9426 4.8548 2.5830
H -2.1396 2.7048 2.7612
H -1.2594 0.6970 1.6554
H 6.5051 -1.3234 2.6517
H 5.0704 -0.2488 2.8274
H 6.5221 0.0649 3.7977
H 8.6055 -0.3547 1.5223
H 8.5848 1.0437 2.6628
H 8.6269 1.3178 0.8974
H 4.9934 2.0543 1.9890
H 6.4423 2.9095 1.4613
H 6.3720 2.3327 3.0990
H 8.3701 -0.9800 -1.0945
H 9.1467 -3.2558 -1.6395
H 7.7901 -5.2232 -0.9842
H 5.6465 -4.8983 0.2191
H 4.8500 -2.6366 0.6987
H 7.5295 2.7545 -0.2128
H 7.9101 4.1790 -2.0814
H 7.0102 3.6148 -4.3106
H 5.6973 1.5380 -4.6195
H 5.2527 0.0506 -2.7061
