41
 
P 1.0025 0.0718 -0.0696
C 0.2515 1.5861 0.6810
C -1.2670 1.6777 0.6908
C 0.8186 1.7557 2.1008
C 0.4561 0.0051 -1.8212
C 0.9447 1.1751 -2.6666
C 0.8986 -1.3271 -2.4413
C 0.5402 -1.2631 1.0783
Cu 3.4625 0.0718 -0.0696
C 5.6125 0.0718 -0.0696
N 6.4699 1.1335 -0.0551
C 6.2135 2.5684 -0.0313
C 7.7147 0.6061 -0.0669
Cl 9.2177 1.5216 -0.0580
C 7.6184 -0.7594 -0.0868
Cl 8.9735 -1.8828 -0.1080
N 6.3120 -1.0918 -0.0873
C 5.7686 -2.4458 -0.1030
H 0.6346 2.4527 0.0989
H -1.7169 0.8275 1.2365
H -1.6544 1.7346 -0.3455
H -1.5585 2.6230 1.2059
H 0.4568 0.9580 2.7796
H 0.5148 2.7324 2.5322
H 1.9324 1.7287 2.0785
H -0.6553 0.0192 -1.8118
H 2.0473 1.1424 -2.7885
H 0.6406 2.1386 -2.2146
H 0.4702 1.1118 -3.6720
H 2.0069 -1.4117 -2.4469
H 0.5248 -1.4152 -3.4844
H 0.4807 -2.1817 -1.8651
H -0.5697 -1.3209 1.1168
H 0.9497 -1.1204 2.0931
H 0.9092 -2.2256 0.6678
H 5.1313 2.7927 -0.0236
H 6.6884 3.0378 -0.9222
H 6.6936 3.0078 0.8723
H 6.5862 -3.1992 -0.1146
H 5.1512 -2.5946 -1.0118
H 5.1587 -2.6171 0.8070
