23
 
P 1.0707 0.4943 0.2648
Cl -0.7908 0.2938 -0.6049
Cl 0.6424 -0.6532 1.9570
Cl 1.0137 2.5617 0.4538
Cu 3.4390 0.3413 0.2973
P 5.7243 -0.2414 0.0554
O 6.6444 -1.6282 -0.2812
C 8.0150 -1.4357 -0.2318
C 8.4171 -0.0033 0.0784
C 9.9537 0.0551 0.0875
C 7.7821 0.9037 -1.0261
O 6.3603 0.7344 -1.2094
O 6.3903 0.1007 1.5958
C 7.7990 0.3612 1.4672
H 8.4039 -1.7389 -1.2244
H 8.3987 -2.1240 0.5469
H 10.3503 -0.2741 -0.9002
H 10.3512 -0.6530 0.8511
H 10.3274 1.0717 0.3084
H 8.2714 0.6529 -1.9948
H 8.0378 1.9696 -0.8135
H 8.3017 -0.2611 2.2384
H 8.0397 1.4246 1.7072
