56
 
P 1.0903 0.0346 -0.0254
C 0.4404 1.1458 -1.3375
C -0.9091 1.3934 -1.6597
C -1.2360 2.2912 -2.7012
C -0.2336 2.9505 -3.4222
F -0.5539 3.7971 -4.4364
C 1.1010 2.7395 -3.0935
C 1.4325 1.8528 -2.0619
C 0.7152 -1.5888 -0.7731
C 1.7543 -2.4863 -1.0647
C 1.4728 -3.7813 -1.5322
C 0.1512 -4.1999 -1.7080
F -0.1143 -5.4503 -2.1688
C -0.8957 -3.3349 -1.3882
C -0.6205 -2.0402 -0.9156
C 0.5079 0.4882 1.6341
C -0.8772 0.4992 1.8908
C -1.3720 0.8013 3.1642
C -0.4897 1.0841 4.2059
F -0.9753 1.3916 5.4367
C 0.8917 1.0385 3.9788
C 1.3957 0.7374 2.6966
Cu 3.5503 0.0346 -0.0254
C 5.7003 0.0346 -0.0254
N 6.6045 0.4146 0.9425
C 6.3762 0.9441 2.2829
C 7.8497 0.2114 0.4116
C 9.2055 0.4696 1.0479
C 7.7069 -0.2878 -0.8567
C 8.8362 -0.6561 -1.7938
N 6.3850 -0.3963 -1.1244
C 5.8188 -0.8975 -2.3713
H -1.7107 0.9159 -1.1241
H -2.2696 2.4830 -2.9592
H 1.8799 3.2628 -3.6413
H 2.4836 1.7211 -1.8326
H 2.7824 -2.1944 -0.9028
H 2.2796 -4.4703 -1.7469
H -1.9200 -3.6794 -1.4937
H -1.4594 -1.4177 -0.6376
H -1.5852 0.2636 1.1108
H -2.4416 0.8124 3.3441
H 1.5651 1.2345 4.8041
H 2.4693 0.6834 2.5361
H 5.2965 1.0330 2.5066
H 6.8574 1.9444 2.3669
H 6.8603 0.2774 3.0324
H 9.1615 0.8760 2.0756
H 9.7817 1.1866 0.4193
H 9.7951 -0.4753 1.0756
H 9.8376 -0.4783 -1.3469
H 8.7770 -0.0478 -2.7194
H 8.7783 -1.7337 -2.0493
H 6.6240 -1.1813 -3.0853
H 5.2010 -0.1128 -2.8494
H 5.2166 -1.8037 -2.1670
