45
 
P 0.9287 -0.5125 0.3239
Cl -0.3178 0.4155 1.6967
Cl -0.0462 0.2248 -1.3744
Cl 0.4786 -2.5181 0.7742
Cu 3.3588 -0.4458 0.0310
C 5.4942 -0.0662 -0.0468
N 6.3286 -1.1369 -0.0478
C 5.8496 -2.5151 -0.0414
C 6.2647 -3.2197 1.2475
C 5.8044 -2.4782 2.4995
C 4.2828 -2.3924 2.5446
C 7.5953 -0.6587 -0.0131
C 7.5322 0.7138 0.0049
C 8.7248 1.4740 0.0402
C 9.9680 0.8008 0.0540
C 10.0192 -0.6019 0.0475
C 8.8336 -1.3506 0.0161
N 6.2181 1.1242 -0.0070
C 5.7681 2.5603 0.0344
C 4.9531 2.8554 1.2707
C 5.5464 2.4650 2.4513
C 4.7583 2.2417 3.5585
C 3.4619 2.7333 3.6186
C 2.9330 3.4230 2.5213
C 3.6432 3.3908 1.2978
H 6.2200 -3.0719 -0.9204
H 4.7419 -2.5136 -0.1192
H 7.3664 -3.2921 1.2806
H 5.8238 -4.2380 1.2519
H 6.2493 -1.4582 2.5241
H 6.1730 -3.0376 3.3869
H 3.8886 -1.8151 1.6957
H 3.9637 -1.8715 3.4621
H 3.8552 -3.4183 2.5083
H 8.7309 2.5514 0.0538
H 10.9020 1.3552 0.0717
H 10.9801 -1.1116 0.0646
H 8.9386 -2.4267 0.0136
H 5.1884 2.7819 -0.8751
H 6.6547 3.2261 0.0754
H 6.5954 2.2247 2.4655
H 5.1819 1.6643 4.3565
H 2.9000 2.5813 4.5300
H 1.9543 3.8821 2.6183
H 3.1838 3.7626 0.3912
