83
 
P 1.0408 0.0383 0.0829
C 0.2435 0.5068 1.6661
C -1.1295 0.7328 2.0011
C -2.2948 0.5755 1.0753
C -1.4483 1.2065 3.2955
C -0.4557 1.4728 4.2373
C 0.8756 1.2657 3.9125
C 1.2153 0.7912 2.6502
C 0.5236 1.1485 -1.2879
C 0.1858 2.5283 -1.1892
C 0.2711 3.3493 0.0621
C -0.2939 3.2062 -2.3285
C -0.4683 2.5520 -3.5449
C -0.1302 1.2116 -3.6610
C 0.3712 0.5217 -2.5531
C 0.4989 -1.6862 0.0835
C 1.2009 -2.7503 0.6721
C 2.4437 -2.5300 1.4673
C 0.7467 -4.0702 0.4678
C -0.3784 -4.3304 -0.3229
C -1.0667 -3.2798 -0.9147
C -0.6288 -1.9762 -0.7172
Cu 3.5008 0.0383 0.0829
C 5.6508 0.0383 0.0829
N 6.4252 0.7287 -0.7904
C 5.9219 1.5607 -1.8818
C 5.0107 2.6367 -1.3096
C 4.4716 3.5811 -2.3912
C 3.6501 4.6868 -1.7419
C 7.7045 0.4422 -0.4363
C 7.6824 -0.4214 0.6279
C 8.8548 -0.9032 1.2208
C 10.0814 -0.4692 0.6988
C 10.1154 0.4139 -0.4003
C 8.9185 0.8791 -0.9873
N 6.3998 -0.6834 0.9488
C 5.8870 -1.5227 2.0230
C 6.2667 -0.9396 3.3861
C 5.7044 0.4826 3.5068
C 6.0821 1.1251 4.8256
H -2.0025 0.3195 0.0508
H -2.8556 1.5368 1.0285
H -2.9758 -0.2000 1.4870
H -2.4770 1.4049 3.5745
H -0.7164 1.8572 5.2162
H 1.6527 1.4880 4.6337
H 2.2694 0.6714 2.4314
H 0.5723 2.7970 0.9517
H -0.7145 3.8211 0.2517
H 1.0120 4.1548 -0.0640
H -0.5655 4.2521 -2.2662
H -0.8730 3.0870 -4.3964
H -0.2722 0.7055 -4.6107
H 0.6117 -0.5259 -2.6936
H 2.7102 -1.4629 1.5393
H 3.2797 -3.0678 0.9753
H 2.2928 -2.9236 2.4926
H 1.2797 -4.9054 0.8998
H -0.7098 -5.3463 -0.4949
H -1.9283 -3.4710 -1.5456
H -1.1746 -1.1968 -1.2270
H 5.3309 0.9280 -2.5792
H 6.7642 2.0133 -2.4476
H 5.6191 3.2417 -0.5938
H 4.1449 2.0966 -0.8045
H 3.8307 3.0084 -3.0952
H 5.3028 4.0516 -2.9634
H 2.8357 4.2241 -1.1656
H 3.2132 5.3592 -2.5088
H 4.2792 5.2889 -1.0500
H 8.8409 -1.5898 2.0545
H 11.0052 -0.8202 1.1438
H 11.0742 0.7307 -0.7909
H 8.9604 1.5528 -1.8308
H 6.2584 -2.5625 1.9046
H 4.7880 -1.5319 1.9649
H 7.3652 -0.9250 3.5219
H 5.8430 -1.5863 4.1849
H 4.5984 0.4335 3.4210
H 6.0973 1.1325 2.6939
H 5.7532 0.4821 5.6671
H 5.5808 2.1128 4.8983
H 7.1824 1.2752 4.8674
