46
 
P 0.9707 -0.0899 0.0325
C 0.0648 -0.2306 1.6186
C -1.3226 -0.1058 1.7620
C -1.9220 -0.1475 3.0217
C -1.1613 -0.3724 4.1737
C -1.8233 -0.3821 5.5241
C 0.2186 -0.5790 4.0467
C 0.8279 -0.4931 2.7829
C 0.5666 1.6359 -0.3872
C 1.5936 2.5513 -0.6377
C 1.2932 3.8854 -0.9548
C -0.0394 4.3254 -1.0175
C -0.3685 5.7754 -1.2262
C -1.0697 3.3976 -0.8576
C -0.7694 2.0667 -0.5677
C 0.6479 -1.6229 -0.8604
C -0.6635 -2.0176 -1.1931
C -0.8948 -3.2058 -1.8987
C 0.1798 -4.0158 -2.2922
C -0.0786 -5.3254 -3.0043
C 1.4967 -3.5985 -1.9955
C 1.7369 -2.4016 -1.2770
Cu 3.4307 -0.0899 0.0325
C 5.5807 -0.0899 0.0325
O 6.7987 -0.0899 0.0325
H -1.9682 0.0389 0.9293
H -2.9907 -0.0024 3.0934
H -2.9008 -0.1190 5.4435
H -1.3433 0.3756 6.1799
H -1.7405 -1.3818 5.9976
H 0.8204 -0.7821 4.9280
H 1.9021 -0.6361 2.7219
H 2.6264 2.2287 -0.5893
H 2.0998 4.5815 -1.1348
H 0.5533 6.3928 -1.2563
H -0.9730 6.1241 -0.3592
H -0.9500 5.9369 -2.1568
H -2.1086 3.7048 -0.9413
H -1.6066 1.4072 -0.4911
H -1.5152 -1.4135 -0.9117
H -1.9141 -3.4979 -2.1354
H -1.1669 -5.5355 -3.1172
H 0.3531 -6.1568 -2.4071
H 0.3778 -5.3383 -4.0162
H 2.3271 -4.2141 -2.3163
H 2.7585 -2.0516 -1.0280
