68
 
P 0.9385 0.0767 0.0182
C 0.1915 -0.4955 -1.7182
C -1.3429 -0.5104 -1.8173
C 0.6226 0.3292 -2.9813
C 0.7230 -1.9099 -2.0531
C 0.4458 -1.3445 1.3621
C 1.1312 -2.6830 1.0474
C 0.8086 -1.1914 2.8912
C -1.0911 -1.5393 1.4821
C 0.4737 1.8767 0.3345
C 0.9739 2.6063 1.6733
C 2.4965 2.5845 1.7143
C 0.5099 4.0747 1.6925
C 0.4885 2.0322 2.9982
Cu 3.3985 0.0767 0.0182
C 5.5485 0.0767 0.0182
N 6.2487 -0.8983 0.4559
C 5.7046 -2.0805 1.0763
C 7.6615 -0.6327 0.3131
C 7.7040 0.5944 -0.6059
N 6.3634 1.1134 -0.5132
C 5.9553 2.4226 -0.9257
C 6.8813 3.3622 -1.4333
C 6.4748 4.6618 -1.7638
C 5.1471 5.0473 -1.5822
C 4.2211 4.1250 -1.0947
C 4.6252 2.8144 -0.7822
H -1.7591 0.5110 -1.7743
H -1.8460 -1.1147 -1.0953
H -1.6564 -1.0072 -2.7656
H 0.3539 1.3990 -2.9260
H 0.0599 -0.0602 -3.8772
H 1.6805 0.1952 -3.2958
H 0.1511 -2.6597 -1.5215
H 1.8289 -1.9755 -1.8926
H 0.5236 -2.2340 -3.0965
H 2.2209 -2.5180 0.9270
H 0.7282 -3.2344 0.2218
H 0.9536 -3.4343 1.8476
H 1.8930 -1.1402 3.1192
H 0.4568 -2.0841 3.4674
H 0.1633 -0.5087 3.4730
H -1.5637 -1.9525 0.6115
H -1.5941 -0.6019 1.8247
H -1.3525 -2.3379 2.2101
H -0.6358 1.9442 0.3057
H 0.8676 2.4580 -0.5229
H 2.7941 3.1703 0.8637
H 2.9046 1.5475 1.6559
H 2.9055 3.0949 2.6141
H 0.8279 4.5828 0.7641
H 0.9722 4.6122 2.5570
H -0.5928 4.1520 1.8081
H 1.0748 1.1520 3.1260
H -0.6184 1.9160 3.0585
H 0.8197 2.6299 3.8793
H 4.5932 -2.0519 1.0768
H 6.0703 -2.1479 2.1233
H 6.0437 -2.9785 0.5185
H 8.2392 -1.4713 -0.1288
H 8.0539 -0.3789 1.3236
H 7.8367 0.2780 -1.6657
H 8.5086 1.2951 -0.3019
H 7.9214 3.1068 -1.5699
H 7.1915 5.3752 -2.1514
H 4.8357 6.0577 -1.8226
H 3.1930 4.4368 -0.9565
H 3.9228 2.0843 -0.4107
