99
 
P 0.9920 -0.0895 0.0439
C 0.6681 -1.8287 0.8076
C -0.5636 -2.4300 1.2790
C -1.8398 -1.7173 1.4062
C -0.6233 -3.7943 1.6564
C 0.5097 -4.6002 1.6273
C 0.5145 -6.0471 2.0048
C 1.7024 -4.0443 1.2627
C 1.7911 -2.7082 0.8831
C 3.1463 -2.2676 0.5942
C 0.4788 1.1480 1.3988
C 1.2659 1.8114 2.4548
C 2.7712 1.8701 2.7041
C 0.5947 2.5891 3.4363
C -0.7733 2.7890 3.4283
C -1.4346 3.6082 4.5093
C -1.5092 2.2867 2.3711
C -0.9107 1.5350 1.3455
C -1.8227 1.2438 0.1518
C 0.3844 -0.0161 -1.7898
C -0.2711 -1.0921 -2.5123
C -0.6094 -2.4598 -2.0390
C -0.7259 -0.9322 -3.8325
C -0.6259 0.2577 -4.5074
C -1.1032 0.3786 -5.9236
C -0.0929 1.3441 -3.8575
C 0.4082 1.2588 -2.5358
C 0.8937 2.6135 -2.0414
Cu 3.4520 -0.0895 0.0439
P 5.9120 -0.0895 0.0439
C 6.9749 -1.2489 -0.9590
C 6.6341 -1.4803 -2.3188
C 7.2913 -2.4639 -3.0847
C 8.2884 -3.2498 -2.5115
C 8.6395 -3.0462 -1.1782
C 8.0025 -2.0512 -0.4135
C 6.3376 1.4901 -0.7811
C 5.3630 2.3679 -1.2920
C 5.7462 3.5456 -1.9622
C 7.0978 3.8623 -2.1246
C 8.0732 3.0171 -1.5975
C 7.6983 1.8435 -0.9267
C 6.2838 -0.2118 1.8657
C 6.4269 -1.4634 2.5601
C 6.2459 -2.8186 1.9472
C 6.7644 -1.4891 3.9245
C 6.9181 -0.3168 4.6454
C 6.7439 0.9084 4.0098
C 6.4454 0.9668 2.6343
H -1.5882 -0.7056 1.4316
H -2.2637 -1.8432 2.4196
H -2.5605 -1.9922 0.6070
H -1.5625 -4.2312 1.9743
H -0.4722 -6.3758 2.3790
H 1.2813 -6.2087 2.7945
H 0.8001 -6.6545 1.1163
H 2.5886 -4.6737 1.2806
H 3.8893 -3.0507 0.7579
H 3.3341 -1.5201 1.4086
H 3.1969 -1.9490 -0.4843
H 3.4482 1.3173 2.0098
H 2.9830 1.6381 3.7852
H 3.0456 2.9613 2.6419
H 1.1466 3.0623 4.2459
H -0.6965 4.0002 5.2435
H -2.1764 3.0004 5.0722
H -1.9451 4.4778 4.0484
H -2.5692 2.5094 2.3330
H -2.8926 1.2351 0.4440
H -1.6583 0.2887 -0.3683
H -1.6527 2.0139 -0.6222
H -0.3389 -2.6679 -1.0565
H -0.0954 -3.2158 -2.6595
H -1.7145 -2.6008 -2.0909
H -1.1937 -1.7637 -4.3511
H -1.4949 -0.5885 -6.3062
H -0.2469 0.6815 -6.5628
H -1.9072 1.1403 -5.9890
H -0.0736 2.2761 -4.4186
H 0.5815 3.4439 -2.7317
H 1.9956 2.6629 -2.0570
H 0.4345 2.9139 -1.0819
H 5.8295 -0.9342 -2.7928
H 7.0157 -2.6424 -4.1197
H 8.7813 -4.0232 -3.0964
H 9.3982 -3.6790 -0.7326
H 8.2953 -1.9518 0.6149
H 4.3114 2.1501 -1.1816
H 4.9985 4.2162 -2.3675
H 7.3901 4.7628 -2.6569
H 9.1211 3.2708 -1.7196
H 8.4790 1.2028 -0.5376
H 5.9523 -2.7637 0.8944
H 5.4574 -3.3677 2.5025
H 7.1880 -3.4027 2.0192
H 6.9017 -2.4363 4.4383
H 7.1643 -0.3682 5.7016
H 6.8496 1.8127 4.5967
H 6.3306 1.9433 2.1862
