88
 
P 0.9394 -0.0481 -0.0634
C -0.0595 -0.9452 1.1706
C 0.3985 1.6521 0.2851
C 0.3952 -0.8319 -1.6264
C -0.5207 -1.8994 -1.6623
C -0.7844 -2.5657 -2.8624
C -0.1346 -2.1820 -4.0370
C 0.7261 -1.0869 -4.0237
C 0.9599 -0.4065 -2.8288
Cu 3.3994 -0.0481 -0.0634
C 5.5494 -0.0481 -0.0634
N 6.3164 -1.1591 -0.1409
C 5.9558 -2.6721 -0.1558
C 6.6610 -3.7988 -0.8523
C 7.8412 -3.8138 -1.8320
C 7.4137 -3.7246 -3.3187
C 8.7695 -2.7398 -1.5610
C 6.1912 -5.1466 -0.7420
C 5.1013 -5.5142 -0.0010
C 4.3811 -4.5520 0.5952
C 4.7549 -3.2070 0.4847
C 3.6344 -2.3989 0.8018
C 4.0281 -1.3861 1.8782
C 3.2205 -2.1581 -0.6854
C 7.6855 -0.6184 -0.0382
C 7.6044 0.8433 -0.3326
N 6.2668 1.1837 -0.0998
C 5.8130 2.4437 0.4382
C 4.5069 2.9516 0.0822
C 3.5504 2.3472 -0.9735
C 2.7319 3.3999 -1.7442
C 4.1928 1.5224 -2.1260
C 4.0328 4.0965 0.7602
C 4.7774 4.7590 1.7055
C 6.0450 4.3333 2.0149
C 6.6213 3.2057 1.4064
C 8.0606 2.9267 1.9290
C 8.1584 1.5809 2.7077
C 9.2002 3.2853 0.8933
H -1.1467 -0.7746 1.0840
H 0.2755 -0.5689 2.1673
H 0.2036 -2.0232 1.1587
H -0.7075 1.6796 0.3350
H 0.6887 2.3386 -0.5130
H 0.8089 1.9734 1.2687
H -1.0249 -2.2449 -0.7762
H -1.4731 -3.3984 -2.8730
H -0.3029 -2.7264 -4.9561
H 1.2265 -0.7737 -4.9320
H 1.6009 0.4304 -2.8327
H 8.4546 -4.7294 -1.6682
H 6.7794 -2.8230 -3.4913
H 6.8641 -4.6192 -3.6595
H 8.3254 -3.6027 -3.9497
H 8.1889 -1.9077 -2.0055
H 9.7186 -2.7570 -2.1118
H 8.9811 -2.7670 -0.4591
H 6.6704 -5.9666 -1.2597
H 4.7542 -6.5382 0.0570
H 3.4516 -4.8602 1.0761
H 2.7263 -2.8753 1.2348
H 5.1219 -1.1997 1.9717
H 3.9204 -1.8872 2.8645
H 3.4695 -0.4457 1.9382
H 3.8716 -1.5100 -1.3121
H 2.1887 -2.0018 -0.7137
H 3.1774 -3.0279 -1.3796
H 8.6015 -0.6927 -0.6158
H 8.0558 -0.8961 0.9664
H 7.8653 1.2037 -1.3572
H 8.3273 1.1765 0.3374
H 2.7728 1.8802 -0.3683
H 3.4098 4.1075 -2.2562
H 2.0341 3.9600 -1.1013
H 2.0728 2.9009 -2.4915
H 4.7943 2.1899 -2.7714
H 3.4558 1.0795 -2.7824
H 4.8076 0.6476 -2.0341
H 3.0628 4.5213 0.5827
H 4.3632 5.6285 2.1992
H 6.5762 4.9044 2.7662
H 8.3293 3.6533 2.7251
H 7.6701 0.7220 2.2388
H 7.5937 1.6358 3.6582
H 9.2175 1.3162 2.9188
H 9.3143 2.7933 -0.0933
H 10.1927 3.1470 1.3724
H 9.0927 4.3426 0.5846
