111
 
P 1.0015 -0.0156 0.0988
C 0.1791 0.4958 -1.4809
C -1.1918 0.6537 -1.8457
C -2.3478 0.4031 -0.9414
C -1.5297 0.9735 -3.1823
C -0.5572 1.0643 -4.1763
C 0.7685 0.8383 -3.8503
C 1.1086 0.5577 -2.5270
C 0.0741 -1.6957 0.0850
C -0.7240 -2.2318 1.1800
C -1.1526 -1.4693 2.3884
C -1.1324 -3.5922 1.1902
C -0.8529 -4.4387 0.1307
C -0.2477 -3.9183 -1.0076
C 0.2054 -2.5703 -1.0425
C 0.6105 1.2667 1.4310
C 1.3197 1.3883 2.6910
C 2.6230 0.7666 3.0471
C 0.7726 2.1194 3.7619
C -0.4717 2.7101 3.6648
C -1.1779 2.6086 2.4823
C -0.6387 1.9196 1.3945
Cu 3.4615 -0.0156 0.0988
C 5.6115 -0.0156 0.0988
N 6.3727 -1.0998 0.0412
C 6.1003 -2.6021 0.0277
C 4.7944 -3.2811 -0.0085
C 3.4574 -2.6203 0.1915
C 2.3381 -3.6774 0.3765
C 3.4818 -1.9797 1.5116
C 4.7092 -4.7189 -0.1041
C 5.7468 -5.5370 -0.0475
C 6.9521 -4.9952 0.0989
C 7.1945 -3.5882 0.1173
C 8.6475 -3.2942 0.4263
C 8.7535 -3.0609 1.9878
C 9.6263 -4.3552 -0.1744
C 7.7205 -0.5705 -0.0689
C 7.6526 0.9007 -0.2470
N 6.3222 1.2184 0.0908
C 5.8608 2.4809 0.6181
C 4.5289 2.9811 0.2968
C 3.5504 2.4031 -0.7855
C 2.7705 3.5164 -1.5152
C 4.2900 1.6979 -1.9763
C 4.1021 4.1553 0.9636
C 4.8875 4.8275 1.8753
C 6.1601 4.3954 2.1550
C 6.7069 3.2571 1.5440
C 8.1694 2.9801 2.0095
C 8.2912 1.6407 2.7929
C 9.2735 3.3243 0.9288
H -2.0234 -0.0446 0.0124
H -3.0238 -0.3284 -1.4227
H -2.9017 1.3530 -0.7814
H -2.5647 1.0975 -3.4716
H -0.8365 1.2592 -5.2061
H 1.5289 0.8532 -4.6253
H 2.1159 0.3105 -2.2994
H -0.7427 -0.4782 2.3800
H -0.8632 -1.9645 3.3380
H -2.2642 -1.3740 2.3628
H -1.6377 -4.0236 2.0538
H -1.1067 -5.4978 0.1991
H -0.0419 -4.5997 -1.8269
H 0.7529 -2.2635 -1.9191
H 3.0439 0.3016 2.1970
H 2.5070 0.0671 3.9141
H 3.3636 1.5451 3.3061
H 1.3043 2.1978 4.7050
H -0.8914 3.2337 4.5142
H -2.1680 3.0412 2.4144
H -1.2559 1.8770 0.5538
H 3.2272 -1.9035 -0.6047
H 2.5418 -4.4371 1.1587
H 2.1494 -4.1689 -0.6012
H 1.4760 -3.3246 0.8963
H 3.6647 -2.7277 2.3162
H 2.4807 -1.5751 1.7088
H 4.2750 -1.2618 1.6029
H 3.8305 -5.3380 -0.1635
H 5.5934 -6.6151 -0.0558
H 7.6883 -5.7650 0.2196
H 9.0663 -2.4819 -0.1237
H 7.8558 -3.4483 2.5365
H 8.7226 -2.0135 2.3247
H 9.6840 -3.4325 2.4470
H 9.6825 -5.1509 0.5534
H 10.6290 -3.9217 -0.3929
H 9.3277 -4.9271 -1.0994
H 8.3258 -0.8629 -0.9416
H 8.2047 -0.7552 0.8916
H 7.8722 1.2945 -1.2606
H 8.4195 1.1910 0.4101
H 2.6574 1.9445 -0.3226
H 3.4666 4.2506 -1.9659
H 2.0357 4.0296 -0.8624
H 2.1390 3.0723 -2.3144
H 5.0393 2.3801 -2.4141
H 3.6776 1.4221 -2.8424
H 4.7495 0.7380 -1.8223
H 3.1419 4.6049 0.7940
H 4.5062 5.7171 2.3614
H 6.7246 4.9750 2.8774
H 8.4745 3.7147 2.7874
H 7.7766 0.7832 2.3417
H 7.7705 1.7116 3.7688
H 9.3569 1.3719 2.9650
H 9.3469 2.8324 -0.0601
H 10.2847 3.1755 1.3667
H 9.1655 4.3802 0.6166
