37
 
P 1.2750 0.0000 0.0000
N 0.3886 1.4953 -0.3242
C -1.0493 1.3860 -0.3205
C -1.4537 -0.0413 0.0011
C -2.9801 -0.0989 0.0152
C -0.8623 -0.9737 -1.1409
N 0.6120 -0.8952 -1.3382
N 0.6068 -0.2521 1.5859
C -0.8663 -0.4070 1.4322
Cu 3.7350 0.0003 -0.0005
N 5.8350 0.0006 -0.0009
C 6.5061 0.3740 -1.1172
O 5.8178 0.8004 -2.2018
C 4.4335 0.8429 -2.2551
C 7.9083 0.2855 -1.1380
C 8.5824 -0.1982 -0.0083
C 7.8597 -0.5717 1.1254
C 6.4703 -0.4594 1.1090
H 0.7359 1.8889 -1.2305
H -1.4438 1.7074 -1.3121
H -1.4354 2.1006 0.4389
H -3.3773 0.2194 -0.9744
H -3.3732 0.6046 0.7829
H -3.3281 -1.1237 0.2413
H -1.3469 -0.7188 -2.1108
H -1.1308 -2.0254 -0.9136
H 0.8720 -0.4198 -2.2324
H 0.8671 0.5491 2.2042
H -1.3537 0.2292 2.2048
H -1.1350 -1.4582 1.6646
H 4.1303 1.2428 -3.2414
H 4.0241 1.4948 -1.4664
H 4.0005 -0.1639 -2.1241
H 8.4729 0.5659 -2.0173
H 9.6614 -0.2934 -0.0099
H 8.3664 -0.9572 2.0020
H 5.8884 -0.7631 1.9697
