78
 
P 1.0029 0.0196 0.0980
C 0.4396 -0.8392 -1.5565
C 0.9230 -2.3177 -1.7867
C 0.1689 -3.2898 -0.9188
C -1.3527 -3.1912 -1.0448
C -1.7770 -1.7421 -0.8345
C -1.0661 -0.8309 -1.8472
C 0.4998 -0.6587 1.8926
C 0.9686 -2.0953 2.3196
C 2.4886 -2.1359 2.3113
C 3.0080 -1.2260 3.4193
C 2.4312 0.1985 3.2537
C 0.8963 0.1978 3.1159
C 0.4245 1.7458 -0.1920
C -0.9173 2.1948 0.1210
C -2.0940 1.4003 0.6356
C -1.2581 3.5358 -0.0544
C -0.3544 4.4554 -0.5504
C -0.7764 5.8797 -0.7191
C 0.9248 4.0363 -0.9056
C 1.3191 2.6997 -0.7396
C 2.6892 2.3138 -1.1930
Cu 3.4629 0.0196 0.0980
C 5.6129 0.0196 0.0980
N 6.3735 0.6922 0.9881
C 5.9407 1.5499 2.0761
C 7.6558 0.4442 0.6680
C 7.6768 -0.4062 -0.4073
N 6.4040 -0.6896 -0.7700
C 6.0287 -1.6046 -1.8376
C 6.9981 -2.2501 -2.6524
C 6.6063 -3.0813 -3.7122
C 5.2547 -3.2958 -3.9697
C 4.2978 -2.7147 -3.1482
C 4.6824 -1.8864 -2.0915
H 0.9519 -0.2778 -2.3687
H 1.9957 -2.4184 -1.5553
H 0.7562 -2.6570 -2.8345
H 0.4377 -2.8957 -0.0053
H 0.5322 -4.3378 -0.9698
H -1.8269 -3.8206 -0.2580
H -1.6879 -3.5459 -2.0389
H -1.4628 -1.5078 0.1833
H -2.8771 -1.6325 -0.8870
H -1.4092 0.2176 -1.8693
H -1.2845 -1.2482 -2.8634
H -0.5998 -0.6873 1.9499
H 0.5650 -2.9687 1.8397
H 0.5627 -2.3684 3.3205
H 2.8469 -1.7744 1.3304
H 2.8600 -3.1715 2.4501
H 4.1125 -1.1728 3.3563
H 2.7487 -1.6865 4.4067
H 2.8602 0.6255 2.2913
H 2.7187 0.7931 4.1536
H 0.4726 1.2189 3.0593
H 0.4219 -0.2495 4.0410
H -1.9479 0.3491 0.7485
H -2.9477 1.5111 -0.0747
H -2.4184 1.7883 1.6234
H -2.2603 3.8702 0.1982
H -1.8263 6.0320 -0.3834
H -0.7124 6.1517 -1.7910
H -0.1213 6.5379 -0.1130
H 1.6190 4.7582 -1.3153
H 3.2534 3.1618 -1.6252
H 2.5896 1.5287 -1.9776
H 3.2673 1.9807 -0.3249
H 4.8364 1.5953 2.1138
H 6.3477 2.5727 1.9205
H 6.3364 1.1507 3.0343
H 8.5210 0.8455 1.1804
H 8.5752 -0.7907 -0.8688
H 8.0587 -2.1215 -2.4980
H 7.3474 -3.5556 -4.3436
H 4.9413 -3.9186 -4.7976
H 3.2544 -2.9060 -3.3417
H 3.9315 -1.4749 -1.4819
