78
 
P 0.9397 0.0175 0.0778
C -0.0258 -1.5622 -0.0787
C -1.2582 -1.7893 0.5635
C -1.9042 -3.0349 0.4734
C -1.3357 -4.0840 -0.2497
C -0.1106 -3.8959 -0.8850
C 0.5445 -2.6515 -0.7995
C 0.2018 0.7072 1.6094
C 0.3233 0.0310 2.8470
C -0.4312 0.4401 3.9620
C -1.2969 1.5304 3.8630
C -1.3839 2.2378 2.6629
C -0.6407 1.8311 1.5432
C 0.5894 0.9087 -1.5191
C 1.0609 2.2251 -1.7985
O 1.7645 2.9076 -0.8605
C 2.1481 4.2298 -0.9927
C 0.7714 2.8266 -3.0559
C 0.0069 2.1692 -4.0086
C -0.5019 0.9114 -3.7267
C -0.2159 0.2886 -2.5060
Cu 3.3997 0.0175 0.0778
C 5.5497 0.0175 0.0778
N 6.3192 -1.1003 0.0607
C 5.8006 -2.4635 0.0860
C 4.8177 -2.6819 -1.0585
C 5.5247 -2.5661 -2.4296
C 4.5510 -2.8608 -3.5641
C 7.6058 -0.6595 0.0676
C 7.5927 0.7075 0.0971
C 8.7714 1.4651 0.1213
C 9.9941 0.7846 0.0993
C 10.0216 -0.6241 0.0788
C 8.8193 -1.3688 0.0694
N 6.3106 1.1257 0.1079
C 5.8054 2.4723 0.1390
C 6.2514 3.2479 -1.0992
C 5.7514 4.6648 -0.9231
C 6.0977 5.5308 -2.1034
H -1.7287 -1.0150 1.1430
H -2.8498 -3.1941 0.9741
H -1.8419 -5.0444 -0.3092
H 0.3280 -4.7260 -1.4336
H 1.5068 -2.5613 -1.2894
H 0.9518 -0.8439 2.9479
H -0.3754 -0.1041 4.8989
H -1.9079 1.8218 4.7126
H -2.0575 3.0831 2.5939
H -0.7664 2.3672 0.6151
H 2.6585 4.5530 -0.0662
H 1.2681 4.8935 -1.1364
H 2.8159 4.3444 -1.8766
H 1.1254 3.8163 -3.3194
H -0.2024 2.6450 -4.9620
H -1.1208 0.4164 -4.4643
H -0.6490 -0.6837 -2.3527
H 5.2368 -2.6100 1.0325
H 6.6278 -3.2052 0.0615
H 3.9594 -1.9434 -0.8968
H 4.4248 -3.7188 -0.9735
H 6.3665 -3.2974 -2.4944
H 5.9509 -1.5489 -2.5696
H 4.1511 -3.8929 -3.4654
H 5.0643 -2.7762 -4.5465
H 3.7113 -2.1371 -3.5320
H 8.7732 2.5432 0.1596
H 10.9181 1.3520 0.1054
H 10.9809 -1.1263 0.0748
H 8.8598 -2.4481 0.0631
H 6.1869 2.9612 1.0597
H 4.6865 2.4361 0.1684
H 5.8491 2.7697 -2.0216
H 7.3503 3.2883 -1.2148
H 6.1766 5.1019 0.0057
H 4.6699 4.6376 -0.8153
H 7.2010 5.5748 -2.2065
H 5.6925 6.5458 -1.9162
H 5.6343 5.1051 -3.0185
