56
 
P 0.9837 0.0507 0.0846
O 0.4099 -0.3827 -1.4670
C 0.9149 0.3976 -2.5060
C 0.4549 -0.2754 -3.8014
O 0.6223 -0.6664 1.5937
C -0.7656 -0.9641 1.5859
C -1.1515 -1.7836 2.8042
C 0.0797 1.6014 0.3325
C -1.1199 1.9245 -0.3057
C -1.7487 3.1456 -0.0282
C -1.1798 4.0519 0.8754
C 0.0257 3.7441 1.5045
C 0.6515 2.5242 1.2369
Cu 3.4437 0.0507 0.0846
P 5.9037 0.0507 0.0846
C 6.8466 -1.1519 1.0619
C 6.2747 -0.1692 -1.6646
C 5.2252 -0.3099 -2.5813
C 5.5050 -0.5204 -3.9415
C 6.8307 -0.5873 -4.3871
C 7.8799 -0.4349 -3.4771
C 7.6052 -0.2230 -2.1195
C 6.3388 1.6011 0.9068
C 5.3400 2.4619 1.3797
C 5.6802 3.7182 1.9015
C 7.0181 4.1212 1.9570
C 8.0221 3.2638 1.5031
C 7.6867 2.0089 0.9778
H 2.0239 0.4474 -2.4914
H 0.4626 1.4080 -2.4715
H 0.9139 -1.2841 -3.9027
H 0.7268 0.3370 -4.6834
H -0.6516 -0.4090 -3.7898
H -1.0678 -1.5481 0.6833
H -1.3607 -0.0287 1.6527
H -0.6373 -2.7659 2.7898
H -2.2514 -1.9542 2.7943
H -0.8884 -1.2315 3.7301
H -1.5713 1.2313 -0.9981
H -2.6827 3.3880 -0.5117
H -1.6719 4.9923 1.0895
H 0.4710 4.4481 2.2009
H 1.5903 2.3061 1.7375
H 6.5254 -2.1532 0.6782
H 6.4964 -1.1135 2.1152
H 7.9402 -1.0719 0.9757
H 4.1973 -0.2529 -2.2285
H 4.6982 -0.6366 -4.6535
H 7.0462 -0.7570 -5.4364
H 8.9051 -0.4882 -3.8256
H 8.4311 -0.1171 -1.4284
H 4.2995 2.1761 1.3174
H 4.9057 4.3898 2.2475
H 7.2762 5.1004 2.3439
H 9.0578 3.5823 1.5428
H 8.4802 1.3730 0.6063
