54
 
P 1.0623 0.0782 0.0021
C 0.1654 1.6277 -0.2898
C 0.5613 -0.9370 -1.4142
C 0.5626 -0.3532 1.6907
Cu 3.5223 0.0782 0.0021
P 5.9823 0.0782 0.0021
C 6.7428 -0.6122 1.5841
C 7.4852 -1.8236 1.6709
C 7.8805 -2.3590 2.9214
C 7.5497 -1.7154 4.1124
C 6.8236 -0.5309 4.0646
C 6.4211 0.0102 2.8249
C 6.4114 -1.0810 -1.3282
C 5.4197 -1.7080 -2.0992
C 5.7785 -2.6008 -3.1224
C 7.1251 -2.8679 -3.3876
C 8.1187 -2.2233 -2.6497
C 7.7660 -1.3283 -1.6312
C 6.3894 1.9521 0.0042
C 7.7995 2.6863 -0.2208
C 8.3087 2.8602 -1.6863
C 7.1975 3.3460 -2.6251
C 5.9721 2.4475 -2.4599
C 5.4404 2.5874 -1.0106
H -0.9312 1.5380 -0.2730
H 0.5159 2.0296 -1.2688
H 0.5155 2.3584 0.4760
H -0.5505 -0.9833 -1.4290
H 0.9367 -1.9702 -1.2554
H 0.9366 -0.5313 -2.3712
H -0.5493 -0.3913 1.7219
H 0.9378 0.3726 2.4347
H 0.9389 -1.3732 1.9177
H 7.7359 -2.4017 0.7995
H 8.4283 -3.2937 2.9835
H 7.8415 -2.1427 5.0724
H 6.5557 -0.0481 5.0010
H 5.8234 0.9077 2.8596
H 4.3732 -1.5045 -1.9174
H 5.0145 -3.0899 -3.7130
H 7.3998 -3.5676 -4.1696
H 9.1622 -2.4205 -2.8684
H 8.5547 -0.8363 -1.0759
H 6.0933 2.2537 1.0246
H 8.6300 2.3397 0.4293
H 7.6157 3.7453 0.0885
H 8.7146 1.9056 -2.0686
H 9.1341 3.6192 -1.7330
H 7.5588 3.3495 -3.6802
H 6.8984 4.3943 -2.3891
H 6.2429 1.3969 -2.7112
H 5.1976 2.7863 -3.1747
H 4.4411 2.1286 -0.8852
H 5.3361 3.6708 -0.7795
