59
 
P 1.0177 0.0695 -0.0697
C 0.2450 -1.5009 0.5863
C -1.2844 -1.4976 0.6127
C 0.7529 -2.6523 -0.3240
C 0.7494 -1.7992 2.0160
C 0.4982 1.1943 1.2672
C 1.2946 1.5487 2.3696
C 0.7882 2.4367 3.3408
C -0.4935 2.9863 3.2062
C -1.2696 2.6655 2.0986
C -0.7763 1.7830 1.1429
C 0.5447 0.4284 -1.7916
C -0.8170 0.5019 -2.1739
C -1.1873 0.7441 -3.4965
C -0.2072 0.9343 -4.4639
C 1.1463 0.8915 -4.1018
C 1.5265 0.6382 -2.7673
Cu 3.4777 0.0695 -0.0697
N 5.5777 0.0695 -0.0697
C 6.2006 0.8475 -0.9959
C 7.5938 0.9252 -1.0344
C 8.3435 0.1773 -0.1296
C 7.6913 -0.6487 0.7927
C 8.4183 -1.4472 1.6714
C 7.7552 -2.3064 2.5427
C 6.3414 -2.3782 2.5665
C 5.6216 -3.3425 3.4559
O 4.4014 -3.3880 3.4102
C 6.3082 -4.3050 4.3978
C 5.6040 -1.5306 1.6967
C 6.2794 -0.6843 0.8132
H -1.7114 -1.3965 -0.3948
H -1.6558 -0.6998 1.2831
H -1.6584 -2.4673 1.0035
H 0.4372 -2.5171 -1.3808
H 0.3816 -3.6429 0.0188
H 1.8673 -2.7038 -0.3173
H 0.4065 -1.0274 2.7320
H 1.8595 -1.8607 2.0578
H 0.3422 -2.7727 2.3710
H 2.2877 1.1391 2.4885
H 1.3829 2.7067 4.2028
H -0.8885 3.6672 3.9509
H -2.2563 3.0980 1.9736
H -1.4065 1.5704 0.2992
H -1.6225 0.3753 -1.4776
H -2.2380 0.7838 -3.7687
H -0.5047 1.1209 -5.4901
H 1.8937 1.0549 -4.8650
H 2.5774 0.6082 -2.4785
H 5.6074 1.4253 -1.6920
H 8.0889 1.5577 -1.7596
H 9.4257 0.2275 -0.1629
H 9.5026 -1.4291 1.6663
H 8.3847 -2.9123 3.1703
H 7.4082 -4.2397 4.4183
H 6.0542 -5.3471 4.1103
H 5.9543 -4.1191 5.4319
H 4.5064 -1.5280 1.6546
