51
 
P 0.9263 -0.0523 0.0427
C 0.6242 -1.5755 -0.9308
C -0.1978 -1.6593 -2.0650
C -0.4602 -2.8876 -2.6817
C 0.1039 -4.0606 -2.1845
C 0.9167 -4.0084 -1.0532
C 1.1672 -2.7791 -0.4255
C 0.3559 0.0232 1.7709
C -0.2904 -1.1022 2.3349
C -0.8449 -1.0429 3.6198
C -0.7683 0.1379 4.3561
C -0.1057 1.2481 3.8222
C 0.4655 1.1905 2.5399
C 0.1122 1.3063 -0.8725
C -1.3651 1.2675 -0.9954
C -2.1944 1.2713 0.1322
C -3.5752 1.2087 -0.0250
C -4.1312 1.1495 -1.3063
C -3.3066 1.1793 -2.4329
C -1.9299 1.2549 -2.2777
Cu 3.3863 -0.0523 0.0427
N 5.4863 -0.0523 0.0427
C 5.9275 -1.3986 0.4477
C 5.9666 0.2607 -1.3067
C 5.9488 0.8606 1.0979
H -0.6678 -0.8074 -2.4774
H -1.1130 -2.9286 -3.5441
H -0.0990 -5.0080 -2.6704
H 1.3396 -4.9248 -0.6577
H 1.7738 -2.7772 0.4725
H -0.3912 -2.0291 1.7858
H -1.3533 -1.9052 4.0394
H -1.2266 0.1915 5.3378
H -0.0542 2.1612 4.3992
H 0.9496 2.0658 2.1344
H 0.6056 1.3634 -1.8663
H 0.3925 2.2464 -0.3430
H -1.7887 1.3223 1.1290
H -4.2086 1.2003 0.8500
H -5.2004 1.0868 -1.4268
H -3.7240 1.1381 -3.4284
H -1.2954 1.2775 -3.1588
H 5.5551 -2.1539 -0.2772
H 5.5285 -1.6730 1.4476
H 7.0409 -1.4631 0.4660
H 5.5657 -0.4699 -2.0411
H 7.0781 0.2672 -1.3465
H 5.5978 1.2666 -1.6023
H 5.5339 0.5822 2.0901
H 5.5922 1.8879 0.8676
H 7.0614 0.8943 1.1396
