66
 
P 0.9322 0.0220 -0.0701
C 0.4034 0.2884 1.6604
C -0.4776 -0.5878 2.3276
C -1.0047 -0.2573 3.5798
C -0.6423 0.9367 4.2009
C 0.2657 1.7950 3.5777
C 0.7864 1.4754 2.3143
C 0.6324 1.2029 -1.4162
C -0.0414 2.4039 -1.0867
C -0.2592 3.3967 -2.0474
C 0.1934 3.2063 -3.3507
C 0.8623 2.0236 -3.6899
C 1.0854 1.0230 -2.7270
C 0.0739 -1.4546 -0.7285
C -1.4110 -1.5386 -0.6095
C -2.1966 -0.4563 -0.1936
C -3.5632 -0.6119 -0.0139
C -4.1656 -1.8467 -0.2593
C -3.3953 -2.9319 -0.6865
C -2.0194 -2.7813 -0.8598
Cu 3.3922 0.0220 -0.0701
P 5.8522 0.0220 -0.0701
N 6.8000 1.5631 -0.1101
C 6.4839 2.3766 -1.3115
C 6.4041 2.4447 1.0281
N 6.3150 -0.3728 1.6238
C 5.8943 -1.7309 1.9965
C 7.7803 -0.2868 1.8545
N 6.3035 -0.6129 -1.6836
C 7.7564 -0.8550 -1.7887
C 5.6202 -1.8940 -1.9507
H -0.8061 -1.5103 1.8825
H -1.7149 -0.9201 4.0585
H -1.0709 1.1970 5.1618
H 0.5422 2.7215 4.0658
H 1.4562 2.1774 1.8343
H -0.3920 2.5911 -0.0782
H -0.7697 4.3178 -1.7814
H 0.0310 3.9796 -4.0936
H 1.2166 1.8913 -4.7020
H 1.6192 0.1259 -2.9985
H 0.4726 -2.2680 -0.0734
H 0.4243 -1.6913 -1.7530
H -1.7621 0.5045 0.0224
H -4.1447 0.2311 0.3280
H -5.2281 -1.9601 -0.1112
H -3.8602 -3.8915 -0.8698
H -1.4255 -3.6390 -1.1642
H 6.7889 1.8908 -2.2549
H 7.0351 3.3486 -1.2709
H 5.3996 2.6425 -1.3665
H 6.4453 1.9687 2.0226
H 5.3635 2.8302 0.9292
H 7.1013 3.3097 1.0926
H 4.8069 -1.8743 1.8484
H 6.1014 -1.8965 3.0805
H 6.4640 -2.5037 1.4311
H 8.1969 0.7253 1.6982
H 8.3465 -0.9792 1.2001
H 8.0118 -0.5090 2.9200
H 8.3430 0.0530 -1.5519
H 8.0125 -1.1371 -2.8360
H 8.0919 -1.6908 -1.1320
H 4.5188 -1.7638 -1.9600
H 5.8997 -2.6814 -1.2112
H 5.9112 -2.2813 -2.9566
