75
 
P 0.9771 0.0819 0.0526
C 0.0694 -0.7390 1.3915
C 0.4810 1.8137 0.2560
C 0.4839 -0.8830 -1.4006
Cu 3.4371 0.0819 0.0526
P 5.8971 0.0819 0.0526
C 6.6853 -1.5516 0.1158
C 6.9400 -2.3215 -1.0778
C 6.6540 -1.9462 -2.5220
C 7.4648 -3.6057 -0.9616
C 7.6940 -4.1863 0.2769
C 8.2451 -5.5695 0.3630
C 7.3781 -3.4912 1.4376
C 6.8638 -2.1960 1.3874
C 6.4939 -1.5876 2.7278
C 6.3644 0.8704 -1.6591
C 5.3309 1.2421 -2.5776
C 3.9189 0.9609 -2.3496
C 5.5768 1.7778 -3.8399
C 6.8466 1.9623 -4.3141
C 7.0228 2.5051 -5.7029
C 7.9122 1.5986 -3.5060
C 7.7046 1.0592 -2.2067
C 8.9689 0.6963 -1.5259
C 6.2231 1.0626 1.6583
C 5.1760 1.5735 2.5396
C 3.6789 1.2811 2.5250
C 5.5196 2.4093 3.6315
C 6.8245 2.7070 3.9630
C 7.1319 3.5523 5.1640
C 7.8420 2.1606 3.2174
C 7.5847 1.3587 2.0927
C 8.8431 0.7554 1.5262
H -1.0265 -0.6866 1.3061
H 0.4152 -0.2844 2.3489
H 0.4146 -1.7985 1.4205
H -0.6305 1.8595 0.2316
H 0.8603 2.3921 -0.6129
H 0.8554 2.2449 1.2017
H -0.6277 -0.8826 -1.4538
H 0.8602 -1.9211 -1.3570
H 0.8641 -0.3692 -2.3088
H 6.0169 -1.1080 -2.7039
H 6.0183 -2.7092 -3.0103
H 7.6036 -1.8231 -3.0867
H 7.6657 -4.1771 -1.8611
H 8.4288 -5.9908 -0.6479
H 7.5244 -6.2244 0.8944
H 9.2062 -5.5373 0.9141
H 7.5265 -3.9694 2.3977
H 6.6277 -2.2676 3.5874
H 5.4360 -1.2423 2.7321
H 7.1802 -0.7892 3.0005
H 3.9141 0.0160 -1.8497
H 3.4589 0.5772 -3.2841
H 3.3998 1.8827 -2.0209
H 4.7449 2.0178 -4.4902
H 6.0365 2.7025 -6.1823
H 7.5501 1.7610 -6.3341
H 7.5773 3.4630 -5.6723
H 8.9164 1.7293 -3.9043
H 9.8523 0.6505 -2.2027
H 8.9187 -0.2969 -1.0387
H 9.2171 1.6085 -0.9907
H 3.2953 0.3146 2.1842
H 3.0778 2.2069 2.3939
H 3.4502 1.0605 3.6151
H 4.7508 2.8174 4.2796
H 6.2027 3.9341 5.6375
H 7.7570 4.4230 4.8748
H 7.6694 2.9318 5.9116
H 8.8636 2.3562 3.5338
H 9.6379 0.6955 2.3014
H 9.3760 1.4797 0.9319
H 8.7591 -0.3109 1.2419
