49
 
P 1.2750 0.0000 -0.0000
N 0.3826 -0.7464 -1.3336
C -1.0559 -0.7228 -1.2197
C -1.4573 0.0148 0.0439
C -2.9851 0.0463 0.0985
C -0.8633 -0.7926 1.2752
N 0.6094 -1.0175 1.2474
N 0.6053 1.5897 -0.2280
C -0.8693 1.4888 -0.0411
Cu 3.7350 0.0003 -0.0005
C 5.8850 0.0006 -0.0009
N 6.6398 1.0937 0.0025
C 6.1064 2.4532 0.0136
C 4.5333 2.4157 0.0248
C 6.6789 3.2151 1.2221
C 7.9182 0.6509 -0.0113
C 7.8901 -0.7385 -0.0057
N 6.5966 -1.1265 0.0002
C 6.0157 -2.4734 0.0134
C 4.4575 -2.4001 0.0198
C 6.5188 -3.2765 -1.1934
H 0.7295 -1.7294 -1.4394
H -1.4455 -1.7675 -1.2197
H -1.4523 -0.2213 -2.1292
H -3.3842 -0.9926 0.0979
H -3.3819 0.5629 -0.8043
H -3.3321 0.5742 1.0059
H -1.3553 -1.7900 1.3323
H -1.1222 -0.2528 2.2091
H 0.8616 -2.0135 1.0559
H 0.8609 1.9297 -1.1831
H -1.3558 2.0293 -0.8847
H -1.1419 2.0309 0.8872
H 6.4574 2.9747 -0.9053
H 4.1221 1.8832 0.8931
H 4.1258 1.9031 -0.8585
H 4.1674 3.4630 0.0277
H 6.3790 2.7307 2.1744
H 6.3362 4.2705 1.2205
H 7.7930 3.2324 1.1811
H 8.8016 1.2766 -0.0181
H 8.7435 -1.4050 -0.0085
H 6.3533 -2.9894 0.9390
H 4.0718 -1.8989 -0.8843
H 4.0920 -1.8431 0.8969
H 4.0286 -3.4185 0.0728
H 6.2184 -2.7900 -2.1453
H 6.1081 -4.3076 -1.1648
H 7.6281 -3.3539 -1.1735
