47
 
P 0.9494 0.0239 -0.0829
C 0.3079 1.5038 -0.9449
C -0.7334 1.5261 -1.8894
C -0.9905 2.6949 -2.6317
C -0.2170 3.8444 -2.4441
C 0.8001 3.8441 -1.4938
C 1.0588 2.6868 -0.7504
C 0.7459 -1.3888 -1.2165
C 1.8971 -2.0962 -1.6019
C 1.7622 -3.3296 -2.2857
C 0.4943 -3.8347 -2.6138
C -0.6488 -3.1167 -2.2646
C -0.5296 -1.9088 -1.5564
C 0.3542 0.0826 1.6622
C 0.7049 -0.9730 2.5679
O 1.5471 -1.9714 2.1722
C 1.9333 -3.0550 2.9528
C 0.1352 -1.0014 3.8646
C -0.7733 -0.0325 4.2658
C -1.1239 0.9915 3.3913
C -0.5670 1.0560 2.1028
Cu 3.4094 0.0239 -0.0829
O 5.4594 0.0239 -0.0829
C 6.2323 0.2271 -1.1184
N 7.5329 0.1406 -0.7703
C 7.5083 -0.1762 0.5420
C 6.1980 -0.2133 0.9668
H -1.3269 0.6548 -2.0919
H -1.7708 2.7071 -3.3813
H -0.3944 4.7314 -3.0439
H 1.4082 4.7325 -1.3570
H 1.8856 2.7075 -0.0493
H 2.8841 -1.6807 -1.3268
H 2.6311 -3.9167 -2.5547
H 0.3912 -4.7870 -3.1319
H -1.6272 -3.5195 -2.5184
H -1.4428 -1.4174 -1.2507
H 2.5881 -3.7296 2.3658
H 1.0479 -3.6446 3.2834
H 2.4963 -2.7131 3.8495
H 0.3643 -1.7897 4.5730
H -1.2169 -0.0911 5.2552
H -1.8511 1.7246 3.7154
H -0.8971 1.8472 1.4485
H 5.8792 0.5337 -2.0946
H 8.3845 -0.3936 1.1385
H 5.8266 -0.4978 1.9433
