51
 
P 1.0595 0.0155 0.0788
C 0.2840 1.6325 0.2911
C -1.0852 1.9237 0.2254
C -1.5296 3.2355 0.4446
C -0.6199 4.2539 0.7507
C 0.7407 3.9680 0.8346
C 1.1881 2.6687 0.5999
C 0.6347 -0.3281 -1.6486
C 1.6367 -0.5766 -2.5932
C 1.2939 -0.9387 -3.9064
C -0.0484 -1.0574 -4.2837
C -1.0533 -0.8503 -3.3414
C -0.7153 -0.5040 -2.0303
C 0.5894 -1.0731 1.4536
C 1.0636 -2.4122 1.4612
O 1.9242 -2.8281 0.4901
C 2.5113 -4.0793 0.4167
C 0.6041 -3.3032 2.4559
C -0.3169 -2.8849 3.4107
C -0.7744 -1.5689 3.4084
C -0.3205 -0.6627 2.4426
Cu 3.5195 0.0155 0.0788
N 5.6195 0.0155 0.0788
C 5.5790 -1.3441 -0.4811
N 6.4148 0.6854 -0.8169
C 7.6397 0.6548 -0.4060
C 7.7034 0.1442 0.8918
C 6.3975 -0.1648 1.2369
H -1.8146 1.1650 0.0220
H -2.5843 3.4631 0.3880
H -0.9673 5.2628 0.9317
H 1.4495 4.7491 1.0861
H 2.2522 2.4679 0.6800
H 2.6780 -0.5181 -2.3033
H 2.0678 -1.1398 -4.6335
H -0.3118 -1.3308 -5.2988
H -2.0941 -0.9753 -3.6227
H -1.5218 -0.4096 -1.3244
H 3.0883 -4.1640 -0.5259
H 1.7361 -4.8759 0.4120
H 3.2019 -4.2320 1.2749
H 0.9298 -4.3348 2.4881
H -0.6826 -3.5908 4.1469
H -1.4995 -1.2589 4.1488
H -0.7165 0.3406 2.4546
H 5.0001 -1.3014 -1.4347
H 5.0021 -2.0259 0.1833
H 6.5685 -1.8005 -0.7200
H 8.4838 0.9816 -0.9997
H 8.5779 0.0345 1.5198
H 6.0465 -0.5532 2.1844
