102
 
P 1.0759 -0.0566 0.0321
C 0.5562 -1.4857 -1.1307
C 1.1592 -1.4673 -2.5766
C 2.6873 -1.7579 -2.6422
C 3.0477 -3.0976 -1.9735
C 2.5246 -3.0849 -0.5441
C 0.9890 -2.8797 -0.5838
C 0.4373 -0.4414 1.8132
C 1.0063 -1.6511 2.6015
C 2.4790 -1.4403 2.9285
C 2.5903 -0.2832 3.9292
C 2.0231 0.9874 3.3041
C 0.5765 0.7605 2.8200
C 0.5776 1.5139 -0.7810
C -0.7717 1.8396 -1.1158
C -1.9481 0.9301 -0.9113
C -1.0857 3.1263 -1.5936
C -0.1176 4.1233 -1.6834
C -0.4665 5.5067 -2.1375
C 1.1823 3.8367 -1.3084
C 1.5300 2.5554 -0.8691
C 2.9193 2.3574 -0.4370
Cu 3.5359 -0.0566 0.0321
P 5.9959 -0.0566 0.0321
C 6.7741 1.6996 0.1623
C 6.2753 2.3572 1.4874
C 8.2987 1.8013 0.0882
C 6.2743 2.6280 -0.9548
C 6.5446 -1.1274 1.5151
C 5.9448 -2.5481 1.3546
C 8.0869 -1.2552 1.6065
C 6.0520 -0.6407 2.8729
C 6.4130 -0.5788 -1.6611
C 6.0034 0.0540 -2.8261
C 6.2630 -0.5227 -4.0746
C 6.9037 -1.7884 -4.2075
N 7.0212 -2.4702 -5.4868
C 6.5449 -1.8893 -6.7347
C 7.5059 -3.8447 -5.6301
C 7.3641 -2.3805 -3.0177
C 7.1328 -1.7815 -1.7912
H -0.5457 -1.4812 -1.2082
H 0.9192 -0.5253 -3.1025
H 0.6712 -2.2942 -3.1504
H 3.2377 -0.9360 -2.1372
H 3.0217 -1.8125 -3.7030
H 4.1503 -3.2654 -1.9855
H 2.5858 -3.9576 -2.5150
H 3.0320 -2.2773 0.0130
H 2.7860 -4.0492 -0.0533
H 0.5228 -3.0513 0.3577
H 0.5608 -3.7035 -1.1927
H -0.6578 -0.5847 1.6997
H 0.8663 -2.6310 2.1864
H 0.4398 -1.7584 3.5556
H 3.0345 -1.2308 1.9953
H 2.8927 -2.3628 3.3820
H 3.6290 -0.1029 4.2565
H 2.0337 -0.5454 4.8528
H 2.6676 1.2584 2.4661
H 2.0701 1.8087 4.0529
H 0.1341 1.6995 2.4282
H -0.0091 0.5172 3.7425
H -1.7529 0.1268 -0.1831
H -2.2958 0.5343 -1.8860
H -2.7811 1.5206 -0.4654
H -2.1085 3.3741 -1.8451
H -1.5409 5.5818 -2.4021
H 0.1411 5.7633 -3.0296
H -0.2522 6.2360 -1.3258
H 1.9273 4.6267 -1.3410
H 3.4669 3.3192 -0.4304
H 3.3504 1.6201 -1.1376
H 2.9625 2.0254 0.6024
H 6.8070 1.9883 2.3683
H 5.1771 2.2315 1.6297
H 6.4893 3.4459 1.5359
H 8.8177 1.3809 0.9501
H 8.5974 2.8754 0.0879
H 8.6541 1.3330 -0.8501
H 5.2272 2.5111 -1.1011
H 6.7573 2.4407 -1.9245
H 6.4507 3.7020 -0.7131
H 6.2446 -3.0946 0.4522
H 4.8433 -2.5077 1.3558
H 6.2605 -3.1989 2.2009
H 8.5732 -1.5102 0.6492
H 8.3847 -2.0224 2.3507
H 8.5463 -0.3323 1.9818
H 4.9895 -0.4458 2.7564
H 6.5635 0.2370 3.2713
H 6.2367 -1.4061 3.6607
H 5.4414 0.9668 -2.7983
H 5.8901 0.0443 -4.8997
H 6.1538 -0.8692 -6.6642
H 5.7177 -2.5141 -7.1336
H 7.3724 -1.8558 -7.4710
H 7.8286 -4.3463 -4.7082
H 8.3643 -3.8752 -6.3329
H 6.6898 -4.4793 -6.0401
H 7.8804 -3.3251 -2.9701
H 7.5019 -2.3304 -0.9551
