89
 
P 0.9092 -0.0389 0.0155
C 0.0950 -1.6762 -0.5321
C 0.4971 -2.2540 -1.9596
C 1.9349 -2.7946 -2.0581
C 2.2056 -3.8302 -0.9638
C 1.8938 -3.2220 0.4065
C 0.4081 -2.8161 0.4579
C 0.2556 0.2353 1.8072
C 0.7427 1.5820 2.3937
C 0.0490 2.7997 1.7253
C -1.4857 2.7467 1.7763
C -1.9822 1.3976 1.2471
C -1.3080 0.2566 2.0278
C 0.5878 1.1531 -1.4117
C -0.5539 1.2436 -2.3035
C -1.6686 0.2629 -2.4642
C -0.7282 2.3750 -3.1323
C 0.1639 3.4298 -3.1173
C 1.2478 3.3854 -2.2602
C 1.4573 2.2739 -1.4259
Cu 3.3692 -0.0389 0.0155
C 5.5192 -0.0389 0.0155
N 6.2904 -0.2322 -1.0849
C 5.7737 -0.5019 -2.4230
C 4.8254 0.6083 -2.8637
C 5.5597 1.9629 -2.9908
C 4.6044 3.0363 -3.4885
C 7.5768 -0.1559 -0.6482
C 7.5609 0.0749 0.7004
C 8.7388 0.1933 1.4506
C 9.9632 0.0854 0.7801
C 9.9936 -0.1577 -0.6073
C 8.7930 -0.2884 -1.3427
N 6.2769 0.1448 1.1096
C 5.7545 0.3598 2.4324
C 6.1911 1.7078 2.9919
C 5.6231 1.7849 4.3982
C 6.0609 3.0560 5.0756
H -0.9964 -1.5649 -0.4225
H 0.3646 -1.5507 -2.8041
H -0.1723 -3.1245 -2.1679
H 2.6499 -1.9510 -1.9697
H 2.0862 -3.2838 -3.0509
H 3.2638 -4.1678 -1.0154
H 1.5633 -4.7295 -1.1164
H 2.5505 -2.3436 0.5853
H 2.1014 -3.9775 1.1907
H 0.0897 -2.5252 1.4729
H -0.1991 -3.7168 0.1932
H 0.6644 -0.5762 2.4434
H 1.8448 1.6468 2.2962
H 0.5058 1.6080 3.4847
H 0.3102 2.8154 0.6695
H 0.4038 3.7486 2.1785
H -1.9096 3.5725 1.1578
H -1.8532 2.8941 2.8168
H -1.7373 1.2845 0.1787
H -3.0917 1.3648 1.3419
H -1.7896 -0.7121 1.7985
H -1.5340 0.4447 3.1123
H -1.4493 -0.6998 -2.1152
H -1.8301 0.0613 -3.5423
H -2.5979 0.6033 -1.9658
H -1.5847 2.4500 -3.7978
H -0.0010 4.2901 -3.7599
H 1.9140 4.2387 -2.2318
H 2.2919 2.3206 -0.7389
H 5.1857 -1.4447 -2.3938
H 6.6023 -0.6337 -3.1508
H 3.9604 0.6127 -2.1180
H 4.4342 0.3444 -3.8710
H 6.4050 1.8842 -3.7141
H 5.9743 2.2769 -2.0080
H 4.1875 2.7606 -4.4812
H 5.1152 4.0184 -3.5717
H 3.7856 3.1303 -2.7622
H 8.7392 0.3594 2.5161
H 10.8872 0.1846 1.3394
H 10.9540 -0.2470 -1.1000
H 8.8390 -0.4834 -2.4043
H 6.1277 -0.4588 3.0824
H 4.6357 0.3306 2.3841
H 5.8282 2.5441 2.3515
H 7.2930 1.8102 3.0422
H 5.9941 0.9204 4.9950
H 4.5138 1.7402 4.3445
H 7.1695 3.0503 5.1494
H 5.6231 3.0943 6.0928
H 5.7096 3.9215 4.4772
