38
 
P 1.2750 0.0000 0.0000
O 0.4328 1.2890 0.7821
C -0.9616 1.2019 0.7190
C -1.4017 -0.0433 -0.0258
C -2.9323 -0.0960 -0.0576
C -0.7800 0.0607 -1.4710
O 0.6259 0.3389 -1.5274
O 0.6278 -1.1970 1.0091
C -0.7811 -1.2688 0.7488
Cu 3.7350 0.0003 -0.0005
N 5.8350 0.0006 -0.0009
C 6.6700 -0.0185 1.0465
N 7.9598 -0.0253 0.6338
C 9.1481 -0.0022 1.4559
C 9.0567 0.0319 2.8631
C 10.2095 0.1167 3.6475
C 11.4668 0.1630 3.0442
C 11.5755 0.1099 1.6551
C 10.4288 0.0261 0.8656
C 7.9065 -0.0234 -0.7204
C 6.5902 -0.0061 -1.1066
H -1.3387 2.1191 0.2150
H -1.3500 1.1965 1.7614
H -3.3314 0.8135 -0.5600
H -3.3315 -0.1072 0.9815
H -3.2850 -0.9961 -0.5949
H -1.2845 0.9022 -1.9953
H -0.9985 -0.8685 -2.0367
H -1.2784 -1.3274 1.7422
H -1.0101 -2.2063 0.2012
H 6.3302 -0.0210 2.0718
H 8.1027 0.0079 3.3684
H 10.1254 0.1565 4.7255
H 12.3575 0.2418 3.6521
H 12.5488 0.1438 1.1839
H 10.5594 -0.0019 -0.2052
H 8.7463 -0.0261 -1.3989
H 6.2060 0.0016 -2.1178
