90
 
P 1.2750 0.0000 0.0000
N 0.4408 1.5428 -0.2179
C 1.0143 2.5282 0.7618
C 2.5447 2.6793 0.6201
C 0.4554 3.9394 0.5742
C -1.0124 1.4228 -0.2262
C -1.4410 -0.0119 0.0299
C -2.9746 -0.0535 0.0331
C -0.8940 -0.9321 -1.1335
N 0.5953 -0.9409 -1.3481
C 1.1150 -2.3605 -1.2814
C 0.5062 -3.3633 -2.2763
C 2.6480 -2.4653 -1.4066
N 0.6332 -0.3627 1.6150
C 1.1862 -1.6594 2.1352
C 2.7028 -1.6777 2.2410
C 0.6453 -2.1118 3.4928
C -0.8626 -0.4506 1.4424
Cu 3.7350 0.0003 -0.0005
C 5.8850 0.0006 -0.0009
N 6.6851 -0.9299 0.5605
C 6.3304 -2.1296 1.3361
C 5.8119 -2.5918 2.7725
C 5.3875 -4.0670 2.6768
C 6.5495 -4.9602 2.2498
C 7.1130 -4.4866 0.9316
C 7.5469 -3.0681 1.0829
C 7.9700 -0.5251 0.2890
C 7.9572 0.5927 -0.4405
N 6.6797 0.9470 -0.5867
C 6.4039 2.3030 -0.9596
C 6.2458 2.7721 0.5368
C 6.9176 4.0886 0.7533
C 6.1706 5.1156 -0.0642
C 6.1940 4.7356 -1.5525
C 5.6088 3.3360 -1.8269
H 0.8079 2.1989 1.8038
H 2.7902 2.9627 -0.4188
H 3.0745 1.7705 0.8969
H 2.9518 3.4455 1.3138
H 0.6944 4.3068 -0.4456
H 0.9241 4.6144 1.3250
H -0.6308 3.9900 0.7459
H -1.3735 1.7701 -1.2205
H -1.4768 2.0600 0.5491
H -3.3639 0.2807 -0.9547
H -3.3755 0.6314 0.8114
H -3.3355 -1.0809 0.2338
H -1.3581 -0.6340 -2.0985
H -1.2923 -1.9367 -0.8861
H 0.8027 -2.8165 -0.3588
H 0.7772 -3.1140 -3.3159
H -0.5915 -3.4702 -2.1784
H 0.9091 -4.3777 -2.0311
H 2.9723 -2.2073 -2.4291
H 2.9659 -3.5014 -1.1502
H 3.2009 -1.8340 -0.7258
H 0.8848 -2.4804 1.5117
H 3.0522 -0.9827 3.0292
H 3.2396 -1.4468 1.3311
H 2.9960 -2.7216 2.4550
H 0.9578 -1.4224 4.2978
H 1.0625 -3.1274 3.7059
H -0.4517 -2.2359 3.4831
H -1.3140 0.1898 2.2308
H -1.2380 -1.4814 1.6007
H 6.2791 -1.2655 2.0352
H 4.9385 -2.0832 3.2460
H 6.6190 -2.5024 3.5605
H 4.5836 -4.1536 1.9165
H 5.0018 -4.4198 3.6551
H 6.2078 -6.0039 2.1230
H 7.3519 -4.9174 3.0193
H 6.3568 -4.5259 0.1135
H 7.9969 -5.0918 0.6424
H 8.0144 -2.8966 0.0901
H 8.3184 -2.9189 1.8757
H 8.8917 -0.9884 0.6169
H 8.8182 1.1688 -0.7563
H 6.0069 1.6588 -1.7852
H 6.7698 2.1266 1.2970
H 5.1893 2.7638 0.8456
H 7.9888 4.0058 0.4509
H 6.8738 4.3339 1.8363
H 6.6556 6.0968 0.0969
H 5.1201 5.1587 0.3001
H 7.2511 4.7295 -1.8997
H 5.6355 5.5005 -2.1266
H 5.6813 3.2264 -2.9466
H 4.5307 3.3052 -1.5813
