37
 
C 0.9010 -0.6430 -0.0020
N 0.3969 -0.0065 1.0696
C 0.8803 -0.0779 2.4388
C -0.7089 0.6358 0.6397
C -0.8449 0.3999 -0.7149
N 0.1616 -0.4095 -1.0992
C 0.4693 -0.8587 -2.4498
Cu 2.6584 -1.8814 -0.0135
N 4.3750 -3.0911 -0.0247
C 4.3999 -4.3773 -0.1153
C 3.1976 -5.2802 -0.0382
C 1.8766 -4.7898 -0.0964
C 0.7828 -5.6655 -0.0134
C 0.9854 -7.0383 0.1380
C 2.2805 -7.5397 0.2271
C 3.3743 -6.6739 0.1464
N 5.7240 -4.8644 -0.0821
C 6.5921 -3.7523 -0.3095
C 5.7064 -2.5482 0.0574
H 1.8015 -0.7002 2.4880
H 0.0970 -0.5484 3.0769
H 1.0861 0.9422 2.8175
H -1.3684 1.2286 1.2604
H -1.6118 0.7966 -1.3681
H -0.2719 -0.4539 -3.1725
H 0.4781 -1.9642 -2.4920
H 1.4736 -0.4744 -2.7419
H 1.6727 -3.7406 -0.2148
H -0.2275 -5.2816 -0.0706
H 0.1411 -7.7152 0.1917
H 2.4403 -8.6036 0.3585
H 4.3514 -7.1200 0.2412
H 6.0182 -5.8467 -0.1535
H 6.8057 -3.7862 -1.4067
H 7.5422 -3.7732 0.2570
H 5.8529 -1.7763 -0.7391
H 5.8923 -2.1268 1.0581
