47
 
P -1.3500 0.0010 0.7980
N -1.1782 -1.1726 -0.5333
C -2.3765 -1.1485 -1.3728
C 0.0256 -1.4151 -1.3324
C 1.2621 -1.2756 -0.5372
N 1.7641 0.1176 -0.2863
C 1.1269 1.4847 -0.2984
C -0.2132 1.7014 -1.0128
N -1.4490 1.4387 -0.2032
C -1.8057 2.5296 0.7077
N 0.0158 -0.6292 1.8974
C -0.3799 -1.5666 2.9572
C 1.4258 -0.0740 2.1237
C 2.4706 -0.0016 0.9601
Cu -3.3226 0.0026 2.2679
O -4.9664 0.0039 3.4928
C -5.4490 -1.2994 3.4940
C -5.8947 -1.7027 2.0918
C -4.3456 -2.2057 3.9904
H -3.2940 -1.0861 -0.7472
H -2.4459 -2.0817 -1.9694
H -2.3420 -0.2723 -2.0536
H 0.0836 -0.8777 -2.2919
H -0.0195 -2.4999 -1.5922
H 2.0904 -1.8626 -0.9889
H 1.0947 -1.9057 0.3676
H 1.8941 2.1510 -0.7565
H 1.0214 1.9612 0.6975
H -0.2039 1.1793 -1.9810
H -0.2256 2.7750 -1.3065
H -1.9170 3.4800 0.1434
H -1.0318 2.6730 1.4947
H -2.7836 2.2709 1.2120
H -1.3366 -1.2778 3.4269
H 0.3546 -1.5808 3.7998
H -0.3809 -2.5942 2.5456
H 1.3457 0.9262 2.5720
H 2.0039 -0.7431 2.8031
H 3.1659 -0.8831 0.9017
H 3.1968 0.8334 1.1112
H -6.3287 -1.3506 4.1753
H -5.0315 -1.6768 1.3937
H -6.6820 -1.0117 1.7247
H -6.3128 -2.7330 2.1114
H -3.4676 -2.0609 3.2975
H -4.7204 -3.2551 4.0252
H -4.0779 -1.9193 5.0318
