51
 
C 0.9010 -0.6430 -0.0020
N -0.3442 -1.1194 0.0039
C -0.6945 -2.5378 0.0156
C 0.6210 -3.3994 0.0063
C -1.5212 -2.8257 1.2854
C -1.5611 -2.8464 -1.2235
C -1.1543 -0.0371 0.0011
C -0.3613 1.0914 -0.0051
N 0.9333 0.6982 -0.0032
C 2.1634 1.5037 0.0073
C 1.8283 3.0089 -0.0047
C 2.9659 1.1572 1.2706
C 3.0127 1.1375 -1.2191
Cu 2.6584 -1.8814 -0.0135
C 4.4159 -3.1199 -0.0250
N 5.6035 -2.6514 -0.0048
C 5.9177 -1.2468 -0.0387
C 6.5879 -3.7117 -0.0016
C 5.7525 -4.9730 0.2640
N 4.4178 -4.5282 -0.0276
C 3.2849 -5.3951 -0.2324
H 1.2574 -3.1953 0.8815
H 1.2493 -3.2053 -0.8762
H 0.3393 -4.4720 0.0121
H -0.9281 -2.5958 2.1952
H -1.8449 -3.8866 1.3210
H -2.4375 -2.1920 1.3116
H -1.0045 -2.6251 -2.1579
H -2.4846 -2.2225 -1.2245
H -1.8785 -3.9101 -1.2337
H -2.2361 -0.0565 0.0049
H -0.7146 2.1139 -0.0058
H 1.2162 3.2710 0.8862
H 1.2475 3.2661 -0.9175
H 2.7485 3.6286 0.0118
H 2.3588 1.3650 2.1783
H 3.9014 1.7543 1.3242
H 3.2359 0.0731 1.2468
H 2.4514 1.3426 -2.1573
H 3.2689 0.0479 -1.1582
H 3.9538 1.7300 -1.2394
H 4.9823 -0.6464 -0.0377
H 6.5076 -1.0230 -0.9536
H 6.5229 -0.9815 0.8534
H 7.3746 -3.5918 0.7734
H 7.0418 -3.7474 -1.0166
H 5.7659 -5.2231 1.3503
H 6.0954 -5.8401 -0.3374
H 3.5995 -6.4593 -0.1724
H 2.8724 -5.2186 -1.2500
H 2.5147 -5.2134 0.5359
