70
 
P -1.3500 0.0010 0.7980
N -1.1690 -1.1974 -0.5159
C -2.3661 -1.2017 -1.3572
C 0.0333 -1.4498 -1.3201
C 1.2798 -1.3144 -0.5391
N 1.7773 0.0758 -0.2834
C 1.1579 1.4450 -0.3644
C -0.1873 1.6477 -1.0727
N -1.4194 1.4175 -0.2489
C -1.7596 2.5541 0.6073
N 0.0011 -0.6538 1.8878
C -0.4298 -1.5341 2.9848
C 1.3938 -0.0718 2.1252
C 2.4577 -0.0198 0.9789
Cu -3.3226 0.0026 2.2679
P -5.2952 0.0042 3.7377
O -5.3678 0.2051 5.4406
C -4.3972 1.2174 5.8043
C -4.1533 1.2576 7.3222
C -2.9713 1.1158 5.1646
O -5.9867 1.5345 3.4248
C -6.4497 1.6574 2.0964
C -7.4601 0.5685 1.6737
C -7.1566 3.0147 2.0067
O -6.0912 -1.5085 3.6649
C -5.2276 -2.6002 3.8898
C -4.7034 -2.6428 5.3330
C -6.0550 -3.8706 3.6524
H -3.2845 -1.1418 -0.7343
H -2.4210 -2.1459 -1.9390
H -2.3398 -0.3387 -2.0553
H 0.0905 -0.9204 -2.2836
H -0.0163 -2.5339 -1.5801
H 2.1045 -1.8907 -1.0103
H 1.1234 -1.9435 0.3701
H 1.9247 2.0726 -0.8736
H 1.0735 1.9659 0.6125
H -0.1979 1.1204 -2.0370
H -0.1897 2.7151 -1.3896
H -1.8165 3.4882 0.0090
H -1.0127 2.6888 1.4203
H -2.7640 2.3649 1.0636
H -1.4220 -1.2478 3.3918
H 0.2788 -1.4985 3.8494
H -0.4051 -2.5831 2.6291
H 1.2878 0.9416 2.5354
H 1.9646 -0.7160 2.8343
H 3.1561 -0.8995 0.9448
H 3.1739 0.8238 1.1287
H -4.8349 2.1979 5.5298
H -3.6149 0.3507 7.6794
H -5.0930 1.3784 7.8923
H -3.5032 2.1342 7.5557
H -2.4194 0.2113 5.5024
H -2.3804 2.0138 5.4435
H -2.9666 1.1411 4.0638
H -5.5810 1.6732 1.4006
H -8.3085 0.5196 2.3901
H -6.9792 -0.4261 1.6068
H -7.8556 0.7858 0.6592
H -8.0296 3.0439 2.6976
H -7.5177 3.2051 0.9739
H -6.4607 3.8310 2.2933
H -4.3844 -2.6000 3.1604
H -5.5518 -2.5765 6.0495
H -3.9927 -1.8163 5.5216
H -4.1489 -3.5860 5.5142
H -6.9233 -3.9040 4.3494
H -5.4352 -4.7767 3.8199
H -6.4453 -3.8989 2.6131
