56
 
C 0.9010 -0.6430 -0.0020
N -0.4337 -1.0112 -0.0273
C -0.8498 -2.4233 0.0128
C -0.5383 -2.8404 1.4600
C -1.7640 -2.6296 2.3804
C -2.8271 -3.6446 1.9891
C -3.3484 -3.2907 0.5946
C -2.1980 -3.1433 -0.4327
C -1.1309 0.1308 0.1444
C -0.2236 1.1747 0.1718
N 1.0378 0.6780 0.0714
C 2.3124 1.4192 -0.0214
C 2.2353 2.6618 0.8719
C 2.1365 2.2087 2.3295
C 3.4526 1.5304 2.6985
C 3.7033 0.2716 1.8194
C 3.6107 0.5974 0.3128
Cu 2.6584 -1.8814 -0.0135
N 4.3750 -3.0911 -0.0247
C 5.5712 -2.5501 0.3212
N 6.7058 -3.2840 0.2310
C 6.6826 -4.5620 -0.2323
O 7.8336 -5.2616 -0.3747
C 9.0799 -4.7286 -0.1086
C 5.4586 -5.1409 -0.5859
C 4.2935 -4.3778 -0.4515
H -0.2087 -2.7921 -0.8136
H 0.2890 -2.2323 1.8833
H -0.2194 -3.8945 1.4733
H -2.1879 -1.5962 2.3175
H -1.4673 -2.8084 3.4315
H -3.6678 -3.6455 2.7175
H -2.3658 -4.6600 2.0152
H -3.9293 -2.3523 0.6490
H -4.0449 -4.1089 0.2764
H -2.6038 -2.8639 -1.4288
H -1.8630 -4.2037 -0.5483
H -2.2016 0.2195 0.2828
H -0.4831 2.2176 0.2946
H 2.4094 1.7605 -1.0753
H 1.3635 3.2835 0.5947
H 3.1262 3.3095 0.7169
H 1.2923 1.4977 2.4827
H 1.9514 3.0895 2.9760
H 3.4377 1.2597 3.7755
H 4.2629 2.2832 2.5552
H 2.9668 -0.5117 2.0710
H 4.7189 -0.0931 2.0831
H 3.8329 -0.1987 -0.4241
H 4.4559 1.2961 0.1217
H 5.6271 -1.5370 0.6752
H 9.8600 -5.4917 -0.3045
H 9.1429 -4.4149 0.9555
H 9.2717 -3.8500 -0.7637
H 5.4127 -6.1474 -0.9823
H 3.3373 -4.7811 -0.7587
