51
 
P -1.2486 -0.0609 1.0388
N -1.1657 -1.2581 -0.2879
C -2.3413 -1.1112 -1.1733
C 0.0222 -1.4772 -1.1177
C 1.2676 -1.2887 -0.3445
N 1.9080 0.0911 -0.2941
C 1.2389 1.4819 -0.2407
C -0.1243 1.6493 -0.8988
N -1.3447 1.3615 -0.0407
C -1.7803 2.5060 0.7659
N 0.1261 -0.4528 2.2658
C -0.1438 -1.5484 3.1475
C 1.6373 -0.1662 2.2077
C 2.6574 -0.0086 0.9548
Cu -3.2796 0.1576 2.4262
N -5.1350 0.2345 3.3351
C -5.7144 -0.9217 3.8017
C -7.0433 -0.9263 4.3004
O -7.6803 -2.0642 4.6945
C -7.1267 -3.3288 4.6601
C -7.7365 0.2871 4.3532
C -7.1190 1.4581 3.9067
C -5.8207 1.4044 3.3807
H -3.2962 -0.9810 -0.6155
H -2.4493 -2.0066 -1.8215
H -2.2165 -0.2294 -1.8401
H 0.0397 -0.9531 -2.0805
H -0.0319 -2.5633 -1.3676
H 2.0024 -2.1297 -0.3734
H 0.9403 -1.7204 0.5904
H 2.0055 2.2968 -0.2883
H 1.0098 1.9697 0.7267
H -0.1030 1.0863 -1.8314
H -0.1550 2.7058 -1.2433
H -1.8386 3.4222 0.1309
H -1.0613 2.6989 1.5901
H -2.7969 2.2756 1.2178
H -1.0814 -1.3551 3.6832
H 0.6764 -1.6069 3.9045
H -0.1276 -2.4550 2.5208
H 1.0791 0.4172 1.6962
H 2.0623 -1.1593 2.3729
H 3.4152 -0.8425 0.8624
H 3.4054 0.8243 1.0398
H -5.1550 -1.8453 3.7528
H -7.8780 -4.0877 4.9645
H -6.2667 -3.3726 5.3589
H -6.7908 -3.5719 3.6281
H -8.7580 0.3228 4.7232
H -7.6512 2.3998 3.9407
H -5.3553 2.2917 2.9867
