89
 
C 0.9010 -0.6430 -0.0020
N 0.6774 0.6814 -0.4701
C 1.5759 1.5736 -1.2024
C 1.6046 0.8518 -2.5902
C 0.4533 1.3574 -3.5189
C 0.7580 2.7877 -3.9324
C 0.6999 3.6732 -2.6956
C 1.6107 3.1282 -1.5731
C -0.6320 0.9357 -0.3836
C -1.2240 -0.1003 0.2203
N -0.3300 -1.0765 0.4824
C -0.8894 -2.1568 1.3327
C -2.0948 -2.8837 0.6795
C -1.6644 -3.7941 -0.4970
C -0.9904 -4.9759 0.1191
C 0.1045 -4.3478 0.8920
C -0.0151 -3.1896 1.9029
Cu 2.6584 -1.8814 -0.0135
C 4.4159 -3.1199 -0.0250
N 5.6955 -2.5720 0.0538
C 6.3250 -1.2442 0.2640
C 7.5412 -1.1919 1.0245
C 8.1382 -2.3181 1.7227
C 8.2464 -0.0505 1.2796
C 7.8041 1.1550 0.8337
C 8.6293 2.3415 1.2390
C 6.6224 1.2041 0.0664
C 5.8726 0.0176 -0.2332
C 4.6821 0.1593 -1.1296
C 6.5106 -3.6308 -0.1054
C 5.8384 -4.7528 -0.2039
N 4.5167 -4.5299 -0.1670
C 3.5502 -5.6684 -0.1886
C 2.5061 -5.6660 0.6927
C 2.6279 -4.4605 1.6491
C 1.5349 -6.7822 0.6881
C 1.6389 -7.8694 -0.1657
C 0.6176 -8.9963 -0.2294
C 2.7755 -7.9498 -0.9094
C 3.7145 -6.9071 -0.8951
C 4.9556 -7.2097 -1.5366
H 2.1619 1.7598 -0.2749
H 1.4550 -0.2459 -2.5000
H 2.5715 1.0144 -3.0910
H -0.5588 1.3199 -3.0459
H 0.4019 0.7364 -4.4335
H 0.0339 3.1530 -4.6947
H 1.7726 2.8097 -4.3917
H -0.3458 3.7480 -2.3416
H 1.0330 4.6987 -2.9929
H 1.6030 3.8439 -0.7212
H 2.6467 3.2455 -1.9872
H -1.1438 1.8100 -0.7549
H -2.2750 -0.1305 0.4727
H -1.1813 -1.6137 2.2690
H -2.8263 -2.1751 0.3184
H -2.5397 -3.5289 1.4778
H -0.9700 -3.2559 -1.2014
H -2.5038 -4.2095 -1.0620
H -0.5802 -5.6880 -0.6570
H -1.6456 -5.5696 0.7852
H 0.7372 -4.0826 0.0027
H 0.3291 -5.0748 1.6496
H 0.8833 -2.7056 2.3578
H -0.4801 -3.6130 2.8314
H 7.3821 -2.8698 2.3058
H 7.3949 -2.8080 2.3729
H 9.0370 -2.8022 1.2831
H 9.1598 -0.1125 1.8696
H 9.4904 2.0409 1.8900
H 8.0103 3.0239 1.8513
H 9.0570 2.8343 0.3489
H 6.2902 2.1697 -0.2910
H 4.5727 1.1995 -1.4766
H 3.7320 0.0690 -0.6645
H 4.7963 -0.5194 -1.9986
H 7.5835 -3.6638 -0.1446
H 6.4139 -5.6370 -0.2527
H 2.6094 -3.3766 1.4063
H 2.1793 -4.5255 2.6449
H 2.3287 -3.6165 0.9579
H 0.6653 -6.9254 1.3132
H -0.3305 -8.7833 0.3144
H 1.0597 -9.9187 0.1981
H 0.3370 -9.2018 -1.2898
H 2.9441 -8.8574 -1.4776
H 5.0989 -8.2418 -1.8842
H 5.5411 -7.2977 -0.6140
H 5.0933 -6.4283 -2.3106
