60
 
C 0.9010 -0.6430 -0.0020
N -0.3923 -1.1776 0.0452
C -0.9440 -2.5933 0.0345
C -0.1137 -3.7489 -0.0832
C 1.2683 -3.7137 -0.2285
C -0.5385 -5.0557 -0.0594
C -1.8469 -5.3576 0.0285
C -2.2024 -6.8073 0.0505
C -2.7677 -4.3146 0.0763
C -2.3557 -2.9473 0.0789
C -3.4864 -1.9662 0.1066
C -1.1487 -0.0681 0.0173
C -0.3856 1.0450 -0.0587
N 0.9346 0.7577 -0.0585
C 2.0723 1.7859 -0.0409
C 1.9261 3.2404 0.0394
C 0.6874 4.0891 0.1203
C 3.0783 4.0901 0.0603
C 4.3719 3.5935 0.0269
C 5.6208 4.3994 0.0304
C 4.5478 2.2731 -0.0280
C 3.4713 1.4279 -0.0726
C 3.9679 0.1580 -0.2064
Cu 2.6584 -1.8814 -0.0135
N 4.3750 -3.0911 -0.0247
C 4.2314 -3.2707 1.4463
N 5.6232 -2.6093 -0.3307
C 6.4538 -3.5895 -0.4725
C 5.7880 -4.8095 -0.4312
C 4.4565 -4.4951 -0.2475
H 1.3982 -2.9383 -0.9842
H 1.7552 -4.5488 -0.7427
H 1.5235 -3.7719 0.8623
H 0.1901 -5.8669 -0.1118
H -1.2903 -7.4546 0.0183
H -2.8096 -7.0494 -0.8396
H -2.7263 -7.0319 0.9964
H -3.8136 -4.5801 0.1129
H -4.4832 -2.4495 0.1206
H -3.4647 -1.3743 -0.8344
H -3.4233 -1.3537 1.0288
H -2.2021 0.0449 0.0243
H -0.9106 1.9434 -0.1087
H -0.2985 3.6947 0.1801
H 0.6707 4.7505 -0.7698
H 0.7468 4.6892 1.0496
H 2.9718 5.1627 0.1095
H 5.3994 5.4751 0.0620
H 6.1951 4.1496 -0.8934
H 6.2386 4.0962 0.9074
H 5.5760 1.8939 -0.0554
H 5.0230 -0.1343 -0.2311
H 3.5318 -0.1347 -1.1977
H 3.5579 -0.3552 0.6555
H 4.1030 -2.2784 1.9201
H 5.1056 -3.7472 1.9575
H 3.3345 -3.8421 1.7677
H 7.5197 -3.4688 -0.6086
H 6.1967 -5.8098 -0.5140
H 3.6707 -5.2330 -0.1575
