59
 
C 0.9010 -0.6430 -0.0020
N -0.3759 -1.1785 0.0803
C -0.8818 -2.5957 0.0988
C -0.0117 -3.7304 -0.0022
C 1.3872 -3.6737 -0.2178
C -0.4290 -5.0408 0.0222
C -1.7459 -5.3500 0.0881
C -2.1140 -6.7918 0.0629
C -2.6802 -4.3214 0.1383
C -2.2868 -2.9588 0.1470
C -3.4295 -1.9869 0.1646
C -1.1451 -0.0783 0.0431
C -0.3968 1.0336 -0.0655
N 0.9234 0.7504 -0.0803
C 2.0631 1.7610 -0.0663
C 1.9271 3.2093 -0.0042
C 0.6920 4.0568 0.0519
C 3.0827 4.0459 0.0266
C 4.3702 3.5343 0.0175
C 5.6181 4.3350 0.0315
C 4.5363 2.2098 -0.0139
C 3.4492 1.3765 -0.0573
C 3.8957 0.0825 -0.1382
Cu 2.6584 -1.8814 -0.0135
N 4.3750 -3.0911 -0.0247
C 4.4319 -4.2538 0.7098
C 5.6176 -4.9940 0.8153
F 5.6802 -6.0826 1.6234
C 6.7443 -4.5925 0.1119
C 6.6779 -3.4510 -0.6777
C 5.4940 -2.6971 -0.7125
H 1.4212 -2.9124 -1.0102
H 1.8235 -4.4427 -0.8800
H 1.8039 -3.8883 0.7922
H 0.3061 -5.8430 -0.0444
H -1.2075 -7.4415 0.0102
H -2.7202 -6.9895 -0.8413
H -2.6553 -7.0355 0.9936
H -3.7260 -4.5924 0.1576
H -4.4248 -2.4708 0.1799
H -3.4133 -1.4031 -0.7827
H -3.3749 -1.3664 1.0833
H -2.1967 0.0387 0.0674
H -0.9410 1.9205 -0.1129
H -0.2904 3.6623 0.0854
H 0.6894 4.7102 -0.8421
H 0.7329 4.6492 0.9867
H 2.9819 5.1186 0.0644
H 5.3907 5.4100 0.0500
H 6.2029 4.0756 -0.8821
H 6.2176 4.0398 0.9232
H 5.5585 1.8176 -0.0213
H 4.9572 -0.1850 -0.0876
H 3.5655 -0.0932 -1.2160
H 3.4687 -0.3481 0.7782
H 3.6206 -4.5909 1.3241
H 7.6653 -5.1618 0.1834
H 7.5469 -3.1477 -1.2480
H 5.4747 -1.8254 -1.3446
