63
 
P 1.0455 0.0584 0.0672
C 0.3411 -1.1601 -1.1878
C -1.1670 -1.4187 -1.3443
C 0.9074 -0.8405 -2.5813
C 0.5449 -0.5328 1.7654
C -0.9840 -0.5859 2.0287
C 1.1501 -1.8813 2.1029
C 0.5684 1.7955 -0.4749
C -0.9564 2.0422 -0.4629
C 1.1587 2.8823 0.4499
Cu 3.5055 0.0584 0.0672
P 5.9655 0.0584 0.0672
C 6.7889 -1.5840 0.4670
C 6.3672 -2.1646 1.8450
C 6.3619 -2.6513 -0.5686
C 6.4573 0.3678 -1.7114
C 5.9926 1.7351 -2.2533
C 7.9890 0.3091 -1.8645
C 6.4495 1.2645 1.4210
C 7.9792 1.4310 1.5355
C 5.8725 2.6850 1.2000
H 0.7870 -2.1363 -0.8997
H -1.7371 -0.5589 -1.7101
H -1.6340 -1.8479 -0.4592
H -1.3164 -2.2031 -2.1168
H 0.4496 0.0815 -2.9965
H 0.6843 -1.6763 -3.2835
H 2.0119 -0.7221 -2.5510
H 0.9438 0.2186 2.4793
H -1.4987 -1.3792 1.4804
H -1.5001 0.3682 1.8432
H -1.1858 -0.8342 3.0909
H 0.7788 -2.6576 1.4037
H 0.8500 -2.1674 3.1361
H 2.2549 -1.8081 2.0575
H 0.9440 1.9604 -1.5024
H -1.3837 2.0158 0.5573
H -1.5055 1.3517 -1.0976
H -1.1915 3.0524 -0.8573
H 0.7900 2.7789 1.4970
H 0.8320 3.8916 0.1011
H 2.2638 2.8741 0.4492
H 7.8873 -1.4808 0.4539
H 5.2665 -2.3354 1.9177
H 6.6877 -1.5329 2.6941
H 6.8399 -3.1661 1.9911
H 5.2666 -2.8600 -0.5194
H 6.8908 -3.6101 -0.3769
H 6.6124 -2.3583 -1.6010
H 6.0008 -0.4037 -2.3576
H 6.4782 2.5835 -1.7350
H 4.8908 1.8459 -2.2085
H 6.3041 1.8398 -3.3176
H 8.4902 1.0838 -1.2595
H 8.2889 0.4929 -2.9159
H 8.3906 -0.6775 -1.5716
H 6.0660 0.8776 2.3834
H 8.4112 1.9523 0.6578
H 8.4888 0.4599 1.6780
H 8.2285 2.0812 2.4021
H 6.2565 3.1643 0.2792
H 6.1955 3.3646 2.0214
H 4.7668 2.6887 1.1691
