49
 
C 0.9010 -0.6430 -0.0020
N -0.3076 -1.0206 -0.4518
C -0.6407 -2.2715 -1.1252
C 0.5832 -3.1814 -1.2203
C -1.1207 0.0426 -0.2779
C -0.3823 1.0617 0.2934
N 0.8802 0.6211 0.4517
C 1.9792 1.3142 1.1089
C 2.3664 0.5436 2.3799
Cu 2.6584 -1.8814 -0.0135
C 4.4159 -3.1199 -0.0250
N 5.6737 -2.6647 -0.0030
C 6.0809 -1.2684 0.0140
C 6.9447 -0.9663 -1.2210
C 4.8281 -0.3537 0.0823
C 6.4692 -3.7553 -0.0244
C 5.6658 -4.8719 -0.0541
N 4.3770 -4.4649 -0.0497
C 3.1536 -5.2724 -0.0286
C 3.4648 -6.7731 -0.0591
C 2.3435 -4.9432 1.2383
H -0.9869 -2.0361 -2.1581
H -1.4622 -2.7847 -0.5846
H 1.4235 -2.6971 -1.7536
H 0.3070 -4.1186 -1.7481
H 0.8937 -3.4032 -0.2089
H -2.1653 0.0848 -0.5571
H -0.7401 2.0413 0.5838
H 1.6629 2.3345 1.4142
H 2.8330 1.4069 0.4106
H 1.5037 0.4826 3.0716
H 3.2179 1.0433 2.8875
H 2.6304 -0.5095 2.1655
H 6.7076 -1.1103 0.9215
H 6.3366 -1.0352 -2.1462
H 7.7851 -1.6927 -1.3058
H 7.3907 0.0468 -1.1433
H 4.0932 -0.4993 -0.7147
H 5.1770 0.7033 0.1319
H 4.2543 -0.6099 0.9535
H 7.5511 -3.7492 -0.0207
H 6.0071 -5.8983 -0.0685
H 2.5587 -5.0216 -0.9314
H 4.0504 -7.0571 0.8430
H 4.0565 -7.0170 -0.9663
H 2.5286 -7.3679 -0.0795
H 2.8986 -5.2215 2.1552
H 1.3684 -5.4779 1.2178
H 2.1575 -3.8539 1.3249
