75
 
P 0.9393 -0.0211 0.0766
C 0.2348 -1.7164 0.5051
C -1.2735 -1.9828 0.6492
C 0.8042 -2.7620 -0.4674
C 0.4389 1.1545 1.4380
C -1.0896 1.3587 1.6125
C 1.0381 0.7710 2.7778
C 0.4625 0.3745 -1.6985
C -1.0626 0.5082 -1.9071
C 1.0539 1.7186 -2.1734
Cu 3.3993 -0.0211 0.0766
P 5.8593 -0.0211 0.0766
C 6.5630 1.6291 0.1745
C 5.6110 2.6677 0.2126
C 6.0139 4.0047 0.1796
C 7.3765 4.3205 0.0980
C 7.8240 5.7465 -0.0457
C 8.3262 3.2850 0.1174
C 7.9236 1.9437 0.1658
C 6.2630 -0.8758 1.6105
C 7.0391 -2.0541 1.5678
C 7.2679 -2.7965 2.7340
C 6.7211 -2.3702 3.9534
C 6.8739 -3.1920 5.2018
C 5.9916 -1.1717 3.9976
C 5.7661 -0.4282 2.8333
C 6.3680 -0.6471 -1.5412
C 5.4323 -1.0985 -2.4829
C 5.8706 -1.7516 -3.6481
C 7.2444 -1.9442 -3.8828
C 7.7407 -2.7367 -5.0560
C 8.1726 -1.4341 -2.9733
C 7.7376 -0.8049 -1.8113
H 0.6793 -1.9544 1.4951
H -1.8431 -1.8736 -0.2793
H -1.7425 -1.4288 1.4614
H -1.4212 -3.0437 0.9448
H 0.3513 -2.6574 -1.4756
H 0.5786 -3.7886 -0.0984
H 1.9094 -2.6765 -0.5473
H 0.8406 2.1477 1.1447
H -1.6061 0.4878 2.0251
H -1.6036 1.6749 0.6925
H -1.2907 2.1567 2.3565
H 0.6644 -0.2220 3.0990
H 0.7383 1.5238 3.5409
H 2.1425 0.7649 2.7008
H 0.8387 -0.4326 -2.3555
H -1.4894 1.3778 -1.3733
H -1.6132 -0.3867 -1.6279
H -1.2979 0.6741 -2.9788
H 0.6826 2.5710 -1.5585
H 0.7288 1.9228 -3.2221
H 2.1597 1.7138 -2.1604
H 4.5432 2.4361 0.2396
H 5.2641 4.7890 0.1861
H 6.9616 6.4465 -0.0912
H 8.3852 5.8453 -1.0006
H 8.4834 6.0402 0.7954
H 9.3814 3.5164 0.0666
H 8.6741 1.1763 0.1638
H 7.4488 -2.4215 0.6334
H 7.8453 -3.7146 2.6817
H 7.4380 -4.1313 5.0158
H 5.8623 -3.4738 5.5688
H 7.3923 -2.6095 5.9901
H 5.5713 -0.8280 4.9323
H 5.1755 0.4748 2.8775
H 4.3708 -1.0000 -2.2953
H 5.1413 -2.1407 -4.3470
H 6.9024 -3.1522 -5.6523
H 8.3367 -3.5947 -4.6703
H 8.3907 -2.1182 -5.7079
H 9.2360 -1.5676 -3.1369
H 8.4885 -0.4949 -1.1096
