30
 
C -0.2470 -1.1865 -0.0116
N -0.6530 -0.1676 0.8772
C -1.4138 -0.2386 2.1644
C -0.2089 1.0117 0.2977
Cl -0.3400 2.7084 0.8384
C 0.4238 0.7230 -0.8786
Cl 1.2026 1.8862 -1.9723
N 0.3911 -0.6058 -1.0699
C 1.0239 -1.2606 -2.2107
Cu -0.4971 -3.4345 -0.0194
N -0.7397 -5.5152 -0.0007
C -1.1895 -6.2006 1.1048
C -1.1980 -7.6098 1.1321
C -0.9169 -8.3310 -0.0218
C -0.8540 -9.8335 0.0164
C -0.6681 -7.6285 -1.2016
C -0.5117 -6.2253 -1.1527
H -1.6912 -1.2751 2.4374
H -2.3738 0.3412 2.1381
H -0.8538 0.1854 3.0348
H 1.5160 -0.5176 -2.8773
H 0.2760 -1.8015 -2.8097
H 1.8272 -1.9368 -1.8582
H -1.4782 -5.6822 1.9978
H -1.4196 -8.1522 2.0453
H -1.0052 -10.2226 1.0484
H 0.1641 -10.1554 -0.3015
H -1.6078 -10.2810 -0.6555
H -0.5486 -8.1736 -2.1306
H -0.2196 -5.7084 -2.0552
