115
 
C 1.0240 -0.6530 -0.0550
N 0.2688 -0.5388 1.0781
C 0.3194 -1.2063 2.4312
C -0.1122 -0.7080 3.7269
C -0.8636 0.5369 4.0377
C 0.1642 -1.4591 4.9208
C 0.7184 -2.7352 4.8688
C 1.1104 -3.5883 6.0196
C 0.9229 -3.2800 3.6688
C 0.7406 -2.5223 2.5390
C 1.0041 -3.1599 1.4055
C -0.7718 0.4262 0.8343
C -0.4009 1.1268 -0.4081
N 0.4816 0.2708 -1.0996
C 0.8535 0.6026 -2.4939
C 0.8369 1.9496 -3.0653
C 0.1912 3.2253 -2.5101
C 1.4466 2.1698 -4.3195
C 2.0058 1.1512 -5.0654
C 2.7839 1.4630 -6.3060
C 1.7838 -0.1491 -4.6660
C 1.1605 -0.4112 -3.4364
C 0.6991 -1.7751 -3.2031
Cu 2.7802 -1.8697 -0.2955
C 4.5364 -3.0865 -0.5360
N 5.7376 -2.5621 -1.0121
C 6.3781 -1.2333 -1.1628
C 6.1815 -0.2428 -0.1308
C 5.0006 -0.3012 0.8487
C 5.1246 -0.5577 2.3525
C 4.0913 0.8935 0.6039
C 7.0807 0.8446 -0.0335
C 8.1503 0.9896 -0.9023
C 8.2981 0.1262 -1.9568
C 7.4274 -0.9671 -2.1576
C 7.7022 -1.7605 -3.4560
C 7.5591 -0.8567 -4.7115
C 9.1263 -2.3248 -3.4641
C 6.5186 -3.6373 -1.1708
C 5.8966 -4.7533 -0.7461
N 4.6203 -4.4906 -0.3843
C 3.6143 -5.5609 -0.0356
C 3.9023 -6.9712 0.3286
C 5.2365 -7.6682 0.5160
C 5.3142 -8.4275 1.8499
C 5.4495 -8.6401 -0.6496
C 2.8383 -7.9051 0.5016
C 1.5561 -7.5266 0.5479
C 1.2588 -6.2651 0.2482
C 2.2143 -5.3215 -0.2216
C 1.6452 -4.1909 -1.0904
C 2.5902 -3.8903 -2.2912
C 0.1440 -4.4335 -1.4645
H -1.4147 1.0366 3.2686
H -0.2218 1.2322 4.6069
H -1.7443 0.2031 4.6237
H -0.0654 -1.0586 5.8949
H 0.8688 -3.0974 6.9705
H 2.2142 -3.7545 5.9465
H 0.6197 -4.5847 5.9326
H 1.2740 -4.3126 3.6038
H 1.2091 -4.1992 1.5476
H 1.9454 -2.6485 1.2514
H 0.0781 -3.0429 0.7802
H -0.8039 1.2802 1.4985
H -1.7447 -0.1105 0.7444
H 0.2474 1.9838 -0.1006
H -1.3420 1.3692 -0.9545
H -0.4188 3.1157 -1.6397
H 0.4056 4.2093 -2.0681
H 0.9513 3.9677 -2.8049
H 1.5014 3.1706 -4.7284
H 2.9265 2.5602 -6.4149
H 2.2831 1.0661 -7.2082
H 3.7976 1.0149 -6.2031
H 2.0922 -0.9593 -5.3220
H 0.9585 -2.4281 -4.0625
H -0.4042 -1.8556 -3.1564
H 1.0588 -2.0034 -2.2242
H 4.4295 -1.1404 0.5984
H 5.5078 0.3059 2.9248
H 5.6512 -1.5074 2.5834
H 4.0710 -0.7372 2.7013
H 4.6490 1.8572 0.6173
H 3.2997 0.9731 1.3788
H 3.6109 0.6958 -0.3784
H 6.9747 1.5919 0.7370
H 8.8670 1.7973 -0.7923
H 9.1345 0.3296 -2.6162
H 6.9764 -2.5894 -3.5815
H 8.2180 0.0405 -4.6665
H 6.5137 -0.5113 -4.8430
H 7.8597 -1.4149 -5.6270
H 9.8766 -1.5090 -3.4578
H 9.3320 -2.9188 -4.3794
H 9.2639 -2.9610 -2.5776
H 7.5268 -3.6519 -1.5300
H 6.4386 -5.6628 -0.7932
H 6.0584 -6.9748 0.5839
H 4.5319 -9.2045 1.9654
H 5.2159 -7.7104 2.6888
H 6.2826 -8.9597 1.9022
H 4.6903 -9.4527 -0.6313
H 6.4407 -9.1285 -0.5955
H 5.3691 -8.0669 -1.5973
H 2.9567 -8.9661 0.6533
H 0.7493 -8.2221 0.7541
H 0.2144 -6.1311 0.3357
H 1.5893 -3.2633 -0.6697
H 3.3603 -4.6500 -2.4678
H 3.0096 -2.8607 -2.2064
H 2.1951 -3.7308 -3.2594
H 0.1730 -5.2340 -2.2105
H -0.4402 -3.5262 -1.6798
H -0.5929 -4.7377 -0.6916
