69
 
P 1.0353 -0.0016 -0.0935
C 0.2671 1.8084 -0.2526
C -1.2708 1.9349 -0.2488
C 0.7707 2.7912 0.8457
C 0.7475 2.5082 -1.5473
C 0.5661 -1.0084 -1.7111
C 1.1772 -0.4635 -3.0198
C 1.0757 -2.4712 -1.6609
C -0.9688 -1.1486 -1.9399
C 0.5080 -0.7127 1.6291
C -1.0329 -0.7821 1.7716
C 0.9951 -2.1663 1.8149
C 1.0504 0.0438 2.8556
Cu 3.4953 -0.0016 -0.0935
P 5.9553 -0.0016 -0.0935
N 6.9575 -1.5075 -0.2062
C 6.6271 -2.4954 0.8609
C 6.6233 -2.2359 -1.4654
N 6.4317 0.6959 -1.6837
C 5.9846 2.0885 -1.8477
C 7.9011 0.6733 -1.8874
N 6.4098 0.5627 1.5534
C 7.8688 0.7448 1.7005
C 5.7732 1.8546 1.8908
H -1.7327 1.7487 0.7174
H -1.7664 1.3446 -1.0040
H -1.5730 2.9782 -0.4779
H 0.3397 2.6217 1.8312
H 0.3999 3.8239 0.6399
H 1.8794 2.8572 0.8948
H 0.2632 2.1045 -2.4261
H 1.8581 2.5517 -1.6270
H 0.3817 3.5591 -1.6012
H 2.2827 -0.4663 -2.9767
H 0.8308 0.5006 -3.3549
H 0.8488 -1.0977 -3.8754
H 2.1760 -2.5236 -1.5513
H 0.8052 -3.0029 -2.6049
H 0.5750 -3.0924 -0.9118
H -1.4688 -0.2118 -2.1721
H -1.4864 -1.6861 -1.1246
H -1.1889 -1.7449 -2.8505
H -1.5122 -1.3025 0.9296
H -1.4846 0.1965 1.9207
H -1.3390 -1.3277 2.6884
H 0.5798 -2.8446 1.0706
H 0.6032 -2.5861 2.7718
H 2.0998 -2.2409 1.8426
H 0.6442 1.0425 2.9689
H 2.1576 0.0747 2.8601
H 0.7048 -0.4556 3.7903
H 6.8971 -2.1513 1.8748
H 7.2029 -3.4425 0.6993
H 5.5523 -2.8102 0.8470
H 6.6774 -1.6200 -2.3780
H 5.5922 -2.6622 -1.4605
H 7.3438 -3.0703 -1.6215
H 4.8876 2.1830 -1.7294
H 6.2289 2.4347 -2.8808
H 6.5149 2.7767 -1.1510
H 8.3292 -0.3448 -1.8938
H 8.4378 1.2475 -1.1094
H 8.1575 1.0870 -2.8871
H 8.4290 -0.1675 1.4234
H 8.1129 0.9573 2.7668
H 8.2497 1.6119 1.1138
H 4.6693 1.7734 1.9018
H 6.0864 2.6766 1.2057
H 6.0779 2.1749 2.9169
