27
 
C -0.3280 -1.0820 0.0030
N -1.0996 -0.0493 0.3897
H -2.0910 -0.0902 0.7135
C -0.3368 1.0466 0.2194
Cl -0.8663 2.6890 0.5292
C 0.9031 0.6520 -0.2372
Cl 2.2862 1.6809 -0.5589
N 0.8947 -0.6831 -0.3922
Cu -0.9444 -3.1417 0.0167
N -1.5465 -5.1535 0.0300
C -0.7111 -6.0931 -0.4395
C 0.5738 -5.6084 -1.0175
C -1.0661 -7.4476 -0.3155
C -2.2889 -7.7764 0.2948
C -3.1452 -6.7632 0.7403
C -2.7475 -5.4315 0.5877
C -3.6212 -4.2777 0.9734
H 1.6814 -1.2924 -0.7079
H 0.6137 -4.4736 -0.9153
H 0.6227 -5.9110 -2.0848
H 1.4226 -6.0658 -0.4673
H -0.4072 -8.2344 -0.6574
H -2.5802 -8.8118 0.4197
H -4.0991 -7.0098 1.1918
H -4.5809 -4.6223 1.4164
H -3.8590 -3.6983 0.0542
H -3.0860 -3.5944 1.6640
