57
 
C 1.0240 -0.6530 -0.0550
N 1.0742 0.6564 -0.0785
C 2.2428 1.5470 -0.2289
C 3.4398 1.1949 -0.9586
C 3.6553 -0.0504 -1.7604
C 4.5303 2.0933 -1.0403
C 4.4833 3.3506 -0.4547
C 5.5992 4.3439 -0.5515
C 3.3554 3.7276 0.2235
C 2.2501 2.8816 0.3447
C 1.1319 3.5081 1.1120
C -0.2749 1.1538 0.0846
C -1.1463 -0.0547 -0.1519
N -0.2776 -1.1620 0.1219
C -0.6548 -2.5243 0.4136
C -1.9070 -3.0674 -0.0480
C -2.9982 -2.3596 -0.8346
C -2.2213 -4.4061 0.2191
C -1.3733 -5.2300 0.9447
C -1.7389 -6.6569 1.2168
C -0.1893 -4.7177 1.4466
C 0.1883 -3.3866 1.2187
C 1.4494 -2.9698 1.9566
Cu 2.7802 -1.8697 -0.2955
C 4.5364 -3.0865 -0.5360
N 4.6477 -4.0925 -1.4234
C 5.8959 -4.5559 -1.2280
C 6.4796 -3.8368 -0.2094
O 5.6237 -2.9257 0.1826
H 2.7487 -0.6504 -1.9278
H 4.4858 -0.6176 -1.2922
H 3.9759 0.2256 -2.7870
H 5.4201 1.8220 -1.5979
H 6.4563 3.9503 -1.1306
H 5.9344 4.6134 0.4735
H 5.2176 5.2645 -1.0481
H 3.3460 4.7233 0.6574
H 1.3882 4.5014 1.5423
H 0.8948 2.8716 1.9811
H 0.3062 3.7068 0.4026
H -0.5510 1.9346 -0.6608
H -0.4319 1.4819 1.1263
H -1.3304 -0.0586 -1.2498
H -2.0531 -0.0002 0.4904
H -2.9350 -1.3054 -1.0727
H -3.9454 -2.4271 -0.2596
H -3.1156 -2.8517 -1.8191
H -3.1569 -4.8131 -0.1453
H -2.7184 -6.9166 0.7638
H -1.8025 -6.8222 2.3129
H -0.9630 -7.3257 0.7890
H 0.4382 -5.3722 2.0434
H 1.9277 -3.8107 2.5041
H 1.2436 -2.1561 2.6788
H 2.2563 -2.6653 1.3429
H 6.3490 -5.3648 -1.7849
H 7.4683 -3.9800 0.2061
