42
 
C 2.3270 0.0340 0.0000
N 1.5505 1.1381 0.0294
C 2.0729 2.5042 0.0525
C 1.6597 3.2804 1.3130
C 2.1722 2.6533 2.6159
C 1.7398 3.5039 3.8105
C 0.2765 0.6699 0.0236
C 0.3121 -0.7032 -0.0079
C -0.8524 -1.4777 -0.0291
C -2.0849 -0.8068 -0.0127
C -2.1305 0.6032 0.0193
C -0.9412 1.3615 0.0348
N 1.5984 -1.1032 -0.0305
C 2.1381 -2.4566 -0.0950
C 3.1129 -2.6556 1.0516
C 3.5957 -4.1086 1.1115
C 4.4709 -4.3379 2.3376
Cu 4.4769 0.0580 0.0014
C 6.6267 0.0821 0.0028
O 7.8447 0.0957 0.0037
H 1.6975 3.0440 -0.8424
H 3.1921 2.4657 -0.0008
H 0.5567 3.3648 1.3633
H 2.0743 4.3084 1.2270
H 3.2823 2.5912 2.5975
H 1.7594 1.6283 2.7362
H 2.1587 4.5298 3.7240
H 2.1025 3.0513 4.7567
H 0.6312 3.5715 3.8516
H -0.8270 -2.5581 -0.0600
H -3.0048 -1.3787 -0.0290
H -3.0916 1.1013 0.0281
H -0.9908 2.4394 0.0495
H 2.6827 -2.5979 -1.0525
H 1.3162 -3.2025 -0.0491
H 2.5645 -2.4355 1.9999
H 3.9794 -1.9370 0.8656
H 4.1671 -4.3393 0.1890
H 2.7279 -4.8064 1.1758
H 5.3344 -3.6420 2.3252
H 4.8441 -5.3835 2.3403
H 3.8811 -4.1739 3.2668
