36
 
P 1.0638 -0.0770 -0.0012
O -0.1057 -0.7098 1.0517
C 0.4162 -1.9913 1.4332
O 0.5773 1.5563 0.0524
C 1.1794 2.2275 -1.0323
O 0.7293 -1.2918 -1.1619
C 1.3497 -0.9931 -2.3731
Cu 3.5238 -0.0770 -0.0012
N 5.6238 -0.0770 -0.0012
C 6.4584 -1.1249 -0.0223
N 7.7485 -0.7132 -0.0223
C 8.9365 -1.5358 0.0082
C 8.8445 -2.9429 0.0508
C 9.9968 -3.7273 0.1441
C 11.2543 -3.1243 0.1905
C 11.3637 -1.7356 0.1296
C 10.2175 -0.9461 0.0376
C 7.6960 0.6410 -0.0184
C 6.3798 1.0282 -0.0013
H 0.1058 -2.2798 2.4553
H 1.5407 -2.0747 1.4617
H 0.0485 -2.7657 0.7257
H 0.7180 3.2312 -1.1331
H 0.9881 1.7554 -2.0144
H 2.2679 2.3580 -0.8579
H 1.2082 -1.8722 -3.0354
H 2.4421 -0.8393 -2.2384
H 0.8336 -0.1645 -2.8911
H 6.1179 -2.1500 -0.0254
H 7.8903 -3.4479 0.0279
H 9.9123 -4.8050 0.1905
H 12.1445 -3.7321 0.2756
H 12.3372 -1.2647 0.1639
H 10.3489 0.1244 0.0042
H 8.5363 1.3188 -0.0178
H 5.9964 2.0397 0.0080
