33
 
N -1.3925 -0.1192 -0.0671
C -0.7962 0.3283 1.1053
C 0.5576 0.6653 1.1474
C 1.3532 0.3062 0.1345
Cl 3.0638 0.7439 0.1638
C 0.8031 -0.4079 -0.9257
C -0.5863 -0.4875 -1.0882
Cu -3.4786 -0.2060 -0.2890
N -5.5574 -0.3063 -0.5189
C -6.3452 0.7351 -0.6805
C -5.8430 2.1723 -0.7377
C -4.4765 2.5014 -0.6119
C -4.0749 3.8101 -0.3712
C -4.9484 4.8025 -0.5389
C -6.2366 4.5110 -0.9619
C -6.7197 3.2005 -0.9153
N -7.7445 0.3158 -0.8155
C -7.7293 -1.1505 -1.0913
C -6.3584 -1.5547 -0.5063
H -1.3633 0.4233 1.9899
H 0.9730 1.1858 1.9491
H 1.4424 -0.8724 -1.6119
H -1.0045 -0.8232 -1.9908
H -3.7529 1.7492 -0.6814
H -3.1036 4.0377 -0.0709
H -4.6424 5.7816 -0.3586
H -6.8545 5.2865 -1.2977
H -7.7397 2.9901 -1.0220
H -8.5821 0.9162 -0.7329
H -7.7575 -1.3695 -2.1673
H -8.5670 -1.7290 -0.7073
H -5.8888 -2.3281 -1.0903
H -6.4666 -1.9704 0.4988
