17
 
N -1.3900 -0.1120 -0.0540
C -0.8121 1.0962 0.1747
C 0.5808 1.2199 0.1536
C 1.3722 0.0776 -0.0415
C 2.8676 0.1749 -0.1192
C 0.7488 -1.1666 -0.2017
C -0.6459 -1.2340 -0.2392
Cu -3.4756 -0.2017 -0.2821
C -5.6110 -0.2936 -0.5156
O -6.8207 -0.3457 -0.6479
H -1.4344 1.9746 0.2849
H 1.0334 2.1973 0.2666
H 3.2084 1.2320 -0.1000
H 3.2096 -0.2723 -1.0783
H 3.3365 -0.3739 0.7225
H 1.3362 -2.0661 -0.3397
H -1.1401 -2.1817 -0.4077
