19
 
P 1.0663 0.0130 0.0737
O -0.1499 -1.1423 -0.1767
C 0.3433 -1.9572 -1.2491
O 0.5979 0.4910 1.6410
C 1.2147 1.7254 1.9227
O 0.7473 0.7212 -1.4532
C 1.4098 1.9409 -1.5778
Cu 3.5263 0.0130 0.0737
C 5.6763 0.0130 0.0737
O 6.8943 0.0130 0.0737
H 0.0073 -3.0071 -1.1551
H 1.4646 -2.0428 -1.3243
H -0.0183 -1.5545 -2.2203
H 0.7601 2.1477 2.8423
H 1.0284 2.4991 1.1531
H 2.3020 1.5885 2.1016
H 1.2863 2.2682 -2.6317
H 2.4990 1.8346 -1.3831
H 0.9153 2.7227 -0.9725
