34
 
P 0.9972 -0.0846 0.0532
O -0.1872 -0.9771 0.8762
C 0.3208 -2.3191 0.8856
O 0.5177 1.4686 0.5662
C 1.1340 2.4156 -0.2769
O 0.6645 -0.9190 -1.4055
C 1.3080 -0.3049 -2.4776
Cu 3.4572 -0.0846 0.0532
N 5.5572 -0.0846 0.0532
C 6.2226 0.3986 1.1376
C 5.4613 1.0516 2.2457
C 7.6164 0.2723 1.2119
C 8.3025 -0.3583 0.1727
C 7.6037 -0.8145 -0.9448
C 6.2122 -0.6544 -0.9969
C 5.4346 -1.0829 -2.2026
H 0.0019 -2.8772 1.7862
H 1.4442 -2.4185 0.8933
H -0.0495 -2.8613 -0.0114
H 0.6752 3.4089 -0.0934
H 0.9539 2.2397 -1.3548
H 2.2204 2.4849 -0.0593
H 1.1727 -0.9661 -3.3586
H 2.3981 -0.2087 -2.2921
H 0.8086 0.6424 -2.7505
H 4.3720 1.0462 2.0295
H 5.7930 2.1077 2.3449
H 5.6434 0.5182 3.2007
H 8.1614 0.6400 2.0722
H 9.3760 -0.4851 0.2276
H 8.1408 -1.2885 -1.7571
H 6.0970 -1.5191 -2.9813
H 4.9507 -0.1818 -2.6395
H 4.6521 -1.8190 -1.9318
