41
 
N -0.6790 1.1930 0.0010
C 0.6648 1.2329 -0.1275
C 1.3111 2.5714 -0.2620
C 1.4014 0.0406 -0.1329
C 0.7260 -1.1845 -0.0050
C 1.4780 -2.4840 -0.0065
C -0.6711 -1.1888 0.1240
C -1.3679 0.0290 0.1239
C -2.8582 0.0789 0.2538
Cu -1.6914 3.0329 0.0055
P -2.8773 5.1881 0.0107
N -3.9809 5.5972 -1.3230
C -5.0226 4.5720 -1.5532
C -4.5059 6.9501 -1.2877
O -4.2314 4.9224 1.0152
C -3.8125 4.9927 2.3598
O -1.6731 6.3433 -0.3392
C -0.7256 6.3376 0.6988
H 0.5267 3.3772 -0.2452
H 1.8664 2.6156 -1.2223
H 2.0215 2.7214 0.5778
H 2.4794 0.0671 -0.2360
H 2.5715 -2.3225 -0.1158
H 1.1317 -3.1170 -0.8508
H 1.2975 -3.0232 0.9474
H -1.2048 -2.1272 0.2220
H -3.2901 -0.9416 0.3466
H -3.2918 0.5695 -0.6421
H -3.1354 0.6713 1.1501
H -4.5996 3.5421 -1.4982
H -5.4553 4.6865 -2.5701
H -5.8534 4.6573 -0.8193
H -3.6606 7.6666 -1.3009
H -5.1375 7.0967 -0.3913
H -5.1012 7.1292 -2.2104
H -4.6208 5.4486 2.9719
H -2.9189 5.6341 2.5505
H -3.6302 3.9638 2.7249
H 0.2330 6.7226 0.2916
H -0.4941 5.3186 1.0872
H -1.0462 7.0232 1.5114
