75
 
O -0.3280 -1.0820 0.0030
C -0.5427 -0.1026 0.8806
C 0.0467 1.0671 0.4663
C 0.6747 0.7749 -0.7082
C 0.4147 -0.5616 -0.9615
Cu -0.9157 -3.0459 0.0160
C -1.5321 -5.1056 0.0297
N -0.6270 -6.1726 0.1757
C 0.9271 -6.3199 0.2684
C 1.6405 -7.4164 0.9824
C 0.9851 -8.5080 1.7465
C 0.1284 -7.8476 2.8690
C 0.5783 -9.5412 0.6513
C 3.0329 -7.6301 0.9125
C 3.8264 -6.8511 0.1369
C 3.2718 -5.7795 -0.4945
C 1.8837 -5.4511 -0.4149
C 1.5476 -4.1672 -1.1033
C 2.3308 -3.0401 -0.3304
C 1.9637 -4.0946 -2.5746
C -1.5092 -7.1974 0.2552
C -2.7672 -6.7885 0.0185
N -2.8534 -5.4543 -0.0241
C -4.0631 -4.5826 -0.2288
C -4.3081 -3.3868 0.5444
C -3.4746 -2.8876 1.6997
C -3.0690 -1.4902 1.3914
C -4.3197 -2.8593 2.9995
C -5.4451 -2.5691 0.2744
C -6.3201 -2.8210 -0.7279
C -6.1629 -3.9485 -1.4577
C -5.1040 -4.8566 -1.2174
C -5.2105 -6.0477 -2.1105
C -3.9571 -6.1471 -2.9801
C -5.8034 -7.2471 -1.3241
H -1.0389 -0.1283 1.8134
H 0.0297 2.0225 0.9802
H 1.2560 1.4706 -1.3008
H 0.7659 -1.0811 -1.8382
H 1.6552 -9.1781 2.3420
H -0.3008 -6.8607 2.6011
H 0.8202 -7.5895 3.7139
H -0.6608 -8.4942 3.2907
H 0.2315 -8.8733 -0.1331
H -0.0440 -10.2757 1.1496
H 0.4220 -9.9701 -0.3627
H 3.5192 -8.4631 1.4147
H 4.8830 -7.0743 0.0257
H 3.9751 -5.1980 -1.0723
H 0.4779 -4.2216 -1.1965
H 3.4310 -3.2341 -0.2982
H 2.0191 -2.9322 0.7289
H 2.3358 -2.0653 -0.8252
H 3.0622 -4.1169 -2.6981
H 1.6269 -3.1287 -3.0139
H 1.4934 -4.9248 -3.1367
H -1.4472 -8.2342 0.4368
H -3.4657 -7.5411 -0.0672
H -2.5356 -3.4622 1.8375
H -3.8602 -0.7721 1.0873
H -2.4081 -1.6601 0.5456
H -2.7014 -1.0322 2.3276
H -5.1955 -2.1845 2.8904
H -3.7520 -2.4477 3.8630
H -4.6853 -3.8716 3.2554
H -5.6886 -1.6817 0.8342
H -7.1431 -2.1441 -0.9230
H -6.9163 -4.1054 -2.2212
H -6.0171 -5.8961 -2.8666
H -2.9852 -6.2914 -2.4765
H -3.8559 -5.1758 -3.5298
H -4.1132 -6.9695 -3.6917
H -5.2792 -7.6212 -0.4833
H -6.0201 -8.1115 -1.9776
H -6.7244 -6.9545 -0.7717
