16
 
N 1.0578 0.0764 0.0288
C 0.6001 -1.2985 -0.2126
C 0.6001 0.5543 1.3403
C 0.6061 0.9740 -1.0422
Cu 3.1578 0.0764 0.0288
C 5.3078 0.0764 0.0288
O 6.5259 0.0764 0.0288
H -0.5117 -1.3544 -0.2212
H 0.9900 -1.9755 0.5776
H 0.9866 -1.6663 -1.1871
H -0.5117 0.5726 1.3939
H 0.9866 1.5782 1.5321
H 0.9900 -0.1053 2.1450
H -0.5055 1.0132 -1.0890
H 0.9981 0.6278 -2.0224
H 0.9981 1.9996 -0.8726
