52
 
P -0.0940 -2.5890 -0.0020
N -1.3259 -3.1639 -1.1430
C -0.6367 -4.2226 -1.9234
C -2.3764 -3.9007 -0.3816
O 0.9593 -1.8234 -1.0097
C 1.5143 -0.6966 -0.5179
C 2.9111 -0.6320 -0.5135
C 3.5725 0.4754 0.0106
C 2.8430 1.5498 0.5125
C 1.4469 1.5222 0.4905
C 0.7464 0.3999 -0.0038
C -0.7608 0.4469 0.0262
C -1.3964 1.6085 -0.4618
C -2.7896 1.7119 -0.4860
C -3.5777 0.6815 0.0181
C -2.9790 -0.4558 0.5463
C -1.5876 -0.6006 0.5393
O -1.0815 -1.7513 1.0227
Cu 1.4250 -4.0575 1.2581
N 2.7217 -5.3111 2.3338
C 3.6839 -5.0210 3.2206
N 4.2117 -6.1580 3.7397
C 5.2691 -6.2815 4.7160
C 5.8972 -5.1398 5.2525
C 6.9550 -5.2712 6.1554
C 7.3965 -6.5380 6.5408
C 6.7703 -7.6771 6.0372
C 5.7146 -7.5535 5.1351
C 3.5429 -7.1746 3.1445
C 2.6245 -6.6447 2.2801
H 0.1883 -3.8035 -2.5302
H -1.3366 -4.7489 -2.6092
H -0.1912 -5.0146 -1.2589
H -2.9292 -3.2527 0.3162
H -1.9700 -4.7525 0.2235
H -3.1357 -4.3330 -1.0717
H 3.4869 -1.4639 -0.8990
H 4.6540 0.4969 0.0306
H 3.3620 2.4063 0.9239
H 0.9120 2.3733 0.8955
H -0.8132 2.4288 -0.8618
H -3.2614 2.5933 -0.8989
H -4.6566 0.7579 -0.0007
H -3.6062 -1.2427 0.9405
H 3.9657 -4.0113 3.4816
H 5.5882 -4.1434 4.9736
H 7.4385 -4.3875 6.5495
H 8.2238 -6.6383 7.2293
H 7.1064 -8.6612 6.3367
H 5.2661 -8.4630 4.7662
H 3.6853 -8.2312 3.3140
H 1.9196 -7.1858 1.6628
