88
 
P 1.0900 0.0398 -0.0175
N 0.0816 1.3416 -0.7767
C 0.2300 1.6197 -2.2158
C -1.2478 1.6847 -0.2712
O 0.1781 -1.2531 -0.7532
C 0.4461 -1.5032 -2.1335
O 0.7264 0.7033 1.5079
C 1.1663 -0.2194 2.4274
Cu 3.5500 0.0398 -0.0175
C 5.7000 0.0398 -0.0175
N 6.4734 -1.0297 -0.1817
C 6.1046 -2.4888 -0.2317
C 6.7778 -3.5236 -1.0087
C 7.9121 -3.3517 -1.9940
C 7.8648 -2.1185 -2.8999
C 9.1850 -3.5026 -1.2075
C 6.3814 -4.8941 -0.8946
C 5.3487 -5.3083 -0.0885
C 4.6317 -4.3751 0.5598
C 4.9824 -3.0179 0.4876
C 3.9301 -2.1713 0.9113
C 3.1891 -2.2329 -0.5044
C 3.2392 -2.5758 2.2537
C 7.8442 -0.5326 0.0408
C 7.7848 0.9125 -0.3339
N 6.4441 1.2645 0.0149
C 5.9967 2.5253 0.5344
C 4.7162 3.0765 0.1259
C 3.7367 2.5405 -0.9948
C 2.9876 3.7237 -1.7005
C 4.1357 1.5455 -2.0831
C 4.3008 4.2653 0.7847
C 5.0534 4.8897 1.7591
C 6.2875 4.4005 2.1117
C 6.8142 3.2498 1.5172
C 8.2422 2.8491 1.9752
C 9.2978 3.5671 1.0760
C 8.6567 3.1638 3.4222
H 1.1989 1.2952 -2.6054
H 0.1338 2.7103 -2.4066
H -0.5889 1.1695 -2.8061
H -1.1828 2.0762 0.7623
H -1.9341 0.8250 -0.3641
H -1.6618 2.5414 -0.8589
H -0.0064 -2.4864 -2.3886
H 1.5079 -1.5926 -2.4415
H -0.0705 -0.8170 -2.8035
H 1.0794 0.1546 3.4629
H 2.2417 -0.2161 2.2369
H 0.5921 -1.1864 2.3722
H 7.9132 -4.2080 -2.7191
H 7.8132 -1.1848 -2.3496
H 6.9912 -2.1411 -3.5828
H 8.7963 -2.0848 -3.5046
H 9.2344 -2.7513 -0.4277
H 10.0623 -3.4383 -1.8738
H 9.1641 -4.4785 -0.6808
H 6.8745 -5.6826 -1.4425
H 5.0410 -6.3410 -0.0040
H 3.7320 -4.7031 1.0742
H 4.4372 -1.2941 1.3109
H 2.9748 -3.2288 -0.9787
H 3.6800 -1.6754 -1.3612
H 2.2212 -1.9820 -0.4160
H 2.2978 -3.1486 2.1541
H 2.9517 -1.8205 2.9861
H 4.0383 -2.8903 2.9479
H 8.7255 -0.8535 -0.5152
H 8.0490 -0.5830 1.1398
H 7.9022 1.0799 -1.4252
H 8.6376 1.4256 0.0661
H 2.9733 1.9546 -0.4858
H 3.6728 4.5569 -1.9723
H 2.1753 4.1134 -1.0456
H 2.4611 3.4278 -2.6304
H 3.2261 1.3569 -2.6239
H 4.8083 1.3958 -2.9676
H 4.3147 0.6751 -1.6278
H 3.3732 4.7636 0.5625
H 4.6780 5.7855 2.2372
H 6.8323 4.9418 2.8694
H 8.2806 1.7443 2.0214
H 9.2058 4.6665 1.1967
H 9.2002 3.4016 -0.0164
H 10.3300 3.2671 1.3650
H 8.8194 4.2503 3.5782
H 9.6389 2.6694 3.6245
H 7.9212 2.7662 4.1459
