47
 
P 1.0628 0.0476 0.0616
C 0.1575 -1.2129 -0.8920
C 0.5085 -0.5725 1.6648
C 1.3909 -0.9093 2.6996
C 0.8798 -1.3067 3.9482
C -0.5034 -1.3594 4.1662
C -1.3813 -1.0000 3.1474
C -0.8793 -0.6054 1.9116
C 0.6210 1.6483 -0.5906
C -0.7308 2.0466 -0.6331
C -1.0809 3.3133 -1.1005
C -0.0840 4.1881 -1.5324
C 1.2675 3.7985 -1.4802
C 1.6315 2.5218 -0.9974
Cu 3.5228 0.0476 0.0616
N 5.6228 0.0476 0.0616
C 6.4570 -0.9434 0.4021
N 7.7469 -0.5611 0.2466
C 8.9350 -1.3366 0.5217
C 8.8434 -2.6585 1.0055
C 9.9971 -3.3831 1.3145
C 11.2556 -2.8058 1.1415
C 11.3642 -1.5073 0.6453
C 10.2166 -0.7777 0.3352
C 7.6938 0.7164 -0.2035
C 6.3774 1.0861 -0.3181
H -0.9402 -1.1426 -0.8397
H 0.5144 -2.2200 -0.5803
H 0.4751 -1.0879 -1.9520
H 2.4608 -0.8438 2.5527
H 1.5509 -1.5648 4.7556
H -0.9006 -1.6649 5.1259
H -2.4525 -1.0154 3.3117
H -1.5888 -0.3104 1.1539
H -1.5216 1.3927 -0.2942
H -2.1241 3.6160 -1.1231
H -0.3660 5.1697 -1.8984
H 2.0225 4.4976 -1.8090
H 2.6854 2.1772 -0.9142
H 6.1160 -1.9099 0.7433
H 7.8888 -3.1392 1.1593
H 9.9130 -4.3920 1.6965
H 12.1472 -3.3637 1.3921
H 12.3386 -1.0578 0.5067
H 10.3475 0.2259 -0.0390
H 8.5340 1.3535 -0.4357
H 5.9917 2.0411 -0.6491
