112
 
C 0.9010 -0.6430 -0.0020
N -0.3951 -1.1292 -0.1411
C -1.0064 -2.4741 -0.1424
C -0.5863 -3.3766 0.8780
C 0.6266 -3.0997 1.7013
C 0.6553 -1.8128 2.5785
C 0.9754 -4.1720 2.6917
C -1.2662 -4.5864 1.0941
C -2.3687 -4.9250 0.3909
C -2.7992 -4.1177 -0.6200
C -2.1530 -2.8989 -0.9566
C -2.8104 -2.1721 -2.1479
C -2.8767 -3.0488 -3.4312
C -4.2483 -1.8159 -1.7589
C -1.1580 -0.0235 -0.2391
C -0.4059 1.1019 0.0025
N 0.9011 0.7759 0.0845
C 2.0064 1.7954 0.2653
C 2.0343 3.0022 1.1092
C 0.9345 3.4841 2.0413
C 1.4490 3.6986 3.4761
C 0.4001 4.8278 1.5145
C 3.1677 3.8909 1.0548
C 4.2345 3.6787 0.2213
C 4.1922 2.6103 -0.6093
C 3.1080 1.6999 -0.5913
C 3.0016 0.7433 -1.6929
C 2.3317 1.4684 -2.8869
C 4.2865 0.1799 -2.0299
Cu 2.6584 -1.8814 -0.0135
P 4.6693 -3.2985 -0.0267
C 6.0830 -2.6367 1.1277
C 5.6416 -2.5500 2.6255
C 7.3877 -3.4369 1.0709
C 6.4325 -1.1692 0.8252
C 4.2835 -5.1662 0.5907
C 3.1773 -5.6969 -0.3649
C 5.4887 -6.1657 0.4576
C 3.8910 -5.5484 2.0686
C 5.6107 -3.2144 -1.6623
C 6.1397 -2.0966 -2.3066
C 6.7455 -2.1287 -3.5473
C 6.9657 -3.3331 -4.2034
N 7.5967 -3.3601 -5.4854
C 8.4151 -4.4812 -5.9079
C 7.4137 -2.2687 -6.4292
C 6.5289 -4.4991 -3.5754
C 5.8288 -4.4236 -2.3727
H 1.2069 -3.3283 0.8294
H -0.0513 -1.9529 3.4136
H 0.3514 -0.8339 2.2083
H 1.6923 -1.6671 2.9675
H 0.1530 -4.3469 3.4028
H 1.8647 -3.8961 3.3141
H 1.1018 -5.0653 2.0586
H -0.9824 -5.3126 1.8309
H -2.8880 -5.8374 0.6425
H -3.6797 -4.4797 -1.1228
H -2.2692 -1.2446 -2.4202
H -3.3603 -4.0353 -3.2535
H -1.8698 -3.2283 -3.8572
H -3.4980 -2.5474 -4.2087
H -4.8463 -2.7305 -1.5628
H -4.7854 -1.2768 -2.5646
H -4.2071 -1.1901 -0.8494
H -2.2209 -0.0138 -0.4179
H -0.8292 2.0917 0.0741
H 0.1044 2.7583 2.0714
H 2.2972 4.4168 3.5198
H 1.7825 2.7371 3.9098
H 0.6423 4.1389 4.0984
H 1.1928 5.6089 1.5293
H -0.4285 5.2229 2.1362
H 0.0395 4.6818 0.4767
H 3.2471 4.8034 1.6309
H 5.0753 4.3676 0.1598
H 5.0084 2.5387 -1.3123
H 2.6122 -0.2232 -1.3666
H 2.2426 2.5852 -2.7467
H 1.3465 1.0086 -3.0620
H 2.9258 1.3950 -3.8131
H 4.8933 0.8735 -2.6248
H 4.0904 -0.7387 -2.6282
H 4.7762 -0.0150 -1.0437
H 5.4581 -3.5023 3.1108
H 4.7486 -1.9028 2.7752
H 6.4571 -2.1146 3.2499
H 7.3058 -4.3935 1.5836
H 8.1749 -2.9244 1.6641
H 7.7421 -3.5528 0.0300
H 5.5621 -0.4987 0.9974
H 6.8666 -1.0335 -0.1460
H 7.2549 -0.8085 1.4783
H 3.5028 -5.6822 -1.4202
H 2.2521 -5.0879 -0.3334
H 2.9052 -6.7523 -0.1440
H 6.0101 -6.3030 -0.4752
H 5.1533 -7.2120 0.6481
H 6.2471 -6.0242 1.2266
H 2.9551 -5.3939 2.4754
H 4.5992 -5.2657 2.8422
H 3.8285 -6.6564 2.1909
H 6.1254 -1.1489 -1.9411
H 7.0638 -1.1837 -3.9618
H 8.5522 -5.2396 -5.1111
H 9.4302 -4.1066 -6.1571
H 7.9640 -4.9633 -6.7980
H 6.7349 -1.4747 -6.0569
H 6.9296 -2.6639 -7.3459
H 8.3917 -1.8136 -6.6798
H 6.6677 -5.4741 -4.0247
H 5.4668 -5.3571 -2.0655
