37
 
P 1.0552 -0.0696 0.0459
C 0.1774 -1.2026 -1.0831
C 0.5788 -0.7450 1.6625
C 0.4829 1.6051 -0.4525
C -1.0541 1.6623 -0.3062
C 1.1013 2.6443 0.4991
C 0.8816 1.9194 -1.8966
Cu 3.5152 -0.0696 0.0459
N 5.6152 -0.0696 0.0459
C 6.2800 1.1120 -0.0009
N 7.6321 1.1258 -0.1155
C 8.3464 -0.0327 -0.1777
O 9.6910 -0.0087 -0.3396
C 10.4096 1.1522 -0.5434
C 7.6768 -1.2579 -0.0981
C 6.2850 -1.2498 0.0097
H -0.9202 -1.1831 -1.0216
H 0.5489 -2.2309 -0.8803
H 0.5164 -0.9800 -2.1197
H -0.5333 -0.7503 1.7179
H 0.9466 -0.0611 2.4560
H 0.9633 -1.7685 1.8198
H -1.3601 1.4364 0.7400
H -1.5553 0.9332 -0.9725
H -1.4448 2.6673 -0.5671
H 0.8129 2.4392 1.5542
H 0.7405 3.6658 0.2459
H 2.2107 2.6308 0.4292
H 0.4211 1.1966 -2.5987
H 1.9854 1.8850 -2.0089
H 0.5176 2.9300 -2.1811
H 5.7299 2.0424 0.0221
H 11.4866 0.9089 -0.6471
H 10.2766 1.8402 0.3179
H 10.0702 1.6551 -1.4760
H 8.2159 -2.1960 -0.1463
H 5.7326 -2.1799 0.0395
