40
 
N 0.9465 -0.0512 0.0672
C 0.9045 -0.5795 1.4548
C 0.3177 -1.1537 -0.6725
C 0.2779 1.2695 0.1440
C 0.6410 2.3204 -0.7201
C 0.1575 3.6352 -0.5163
C -0.6805 3.9421 0.5594
C -1.0901 2.9358 1.4109
C -0.6482 1.6310 1.2063
Cu 3.0465 -0.0512 0.0672
N 5.1465 -0.0512 0.0672
C 5.9817 0.9914 0.1730
N 7.2716 0.5825 0.1115
C 8.4597 1.4062 0.0939
C 8.3675 2.8137 0.1159
C 9.5165 3.6024 0.0115
C 10.7707 3.0030 -0.1102
C 10.8810 1.6133 -0.1143
C 9.7384 0.8195 -0.0122
C 7.2182 -0.7675 0.0039
C 5.9016 -1.1517 -0.0381
H -0.1143 -0.8614 1.8042
H 1.3399 0.1737 2.1625
H 1.5360 -1.4781 1.5949
H -0.7910 -1.0631 -0.6616
H 0.5377 -2.1685 -0.2385
H 0.7290 -1.2316 -1.6928
H 1.3221 2.1394 -1.5352
H 0.4554 4.4403 -1.1717
H -1.0129 4.9584 0.7474
H -1.7325 3.1676 2.2584
H -1.0189 0.9591 1.9635
H 5.6414 2.0131 0.2594
H 7.4148 3.3165 0.1912
H 9.4315 4.6811 0.0113
H 11.6575 3.6145 -0.2056
H 11.8518 1.1453 -0.2103
H 9.8702 -0.2510 -0.0361
H 8.0579 -1.4426 -0.0632
H 5.5166 -2.1583 -0.1317
