85
 
P 0.9066 0.0018 0.0356
C -0.0121 1.5629 0.6517
C 0.1851 1.9045 2.1732
C 1.6479 2.2449 2.5450
C 2.2048 3.3931 1.6832
C 1.9739 3.1212 0.1935
C 0.4703 2.8544 -0.0607
C 0.5975 -0.1542 -1.9757
C 1.1855 0.9369 -2.8854
C 2.7037 0.8912 -2.8456
C 3.2255 -0.4638 -3.3560
C 2.5656 -1.6348 -2.6294
C 1.0556 -1.4558 -2.7789
C 0.2373 -1.3087 1.2774
C -1.3193 -1.3754 1.2394
C -1.8113 -1.7270 -0.1664
C -1.2256 -3.0645 -0.6579
C 0.2808 -3.2782 -0.3034
C 0.6979 -2.7904 1.0652
Cu 3.3666 0.0018 0.0356
P 5.8266 0.0018 0.0356
N 6.8281 1.2662 -0.7062
C 6.2657 1.4627 -2.0630
C 6.5357 2.5497 0.0005
O 6.1533 -1.2928 -0.9283
C 6.2276 -2.4812 -0.2960
C 5.4043 -3.5042 -0.7755
C 5.3859 -4.7530 -0.1619
C 6.2181 -5.0070 0.9247
C 7.0739 -4.0112 1.4019
C 7.0893 -2.7225 0.8232
C 8.0314 -1.6995 1.4077
C 9.3670 -2.0912 1.6402
C 10.3028 -1.1906 2.1549
C 9.9183 0.1051 2.4901
C 8.5997 0.5078 2.3103
C 7.6566 -0.3632 1.7586
O 6.4122 0.1166 1.5727
H -1.0968 1.4393 0.4658
H -0.1918 1.1035 2.8353
H -0.4241 2.8119 2.4103
H 2.2639 1.3345 2.4152
H 1.7112 2.5549 3.6149
H 3.2919 3.5328 1.8836
H 1.6942 4.3452 1.9523
H 2.5930 2.2523 -0.1201
H 2.3102 4.0060 -0.3916
H 0.2351 2.8280 -1.1070
H -0.1160 3.7366 0.2838
H -0.4733 -0.0811 -2.2183
H 0.7904 1.9213 -2.7155
H 0.8497 0.7688 -3.9406
H 3.0262 1.0558 -1.8109
H 3.0956 1.7008 -3.4901
H 4.3245 -0.5202 -3.2566
H 2.9674 -0.5582 -4.4353
H 2.8453 -1.6590 -1.5544
H 2.8972 -2.5923 -3.0888
H 0.4952 -2.3918 -2.6520
H 0.8198 -1.3893 -3.8678
H 0.5609 -1.0320 2.2997
H -1.7557 -0.4112 1.5532
H -1.6982 -2.1508 1.9414
H -1.5273 -0.9014 -0.7872
H -2.9165 -1.7284 -0.2625
H -1.4012 -3.1509 -1.7586
H -1.8092 -3.8749 -0.1848
H 0.9607 -2.6550 -0.8095
H 0.5934 -4.3136 -0.5589
H 1.8049 -2.8833 1.1638
H 0.2408 -3.4699 1.8164
H 6.4021 0.5612 -2.6879
H 6.7385 2.3219 -2.5860
H 5.1727 1.6958 -2.0280
H 6.8350 2.5271 1.0643
H 5.4489 2.8313 -0.0250
H 7.0859 3.3975 -0.4672
H 4.7554 -3.3176 -1.6194
H 4.7216 -5.5236 -0.5303
H 6.1976 -5.9792 1.4007
H 7.7043 -4.2430 2.2523
H 9.7005 -3.0906 1.3878
H 11.3315 -1.4967 2.2912
H 10.6420 0.8043 2.8865
H 8.3110 1.5161 2.5756
