118
 
P 1.0660 -0.0694 0.0288
C 0.7026 -1.6245 1.1734
C -0.7538 -1.9035 1.6157
C -1.5309 -2.5043 0.4841
C -0.9530 -3.8026 -0.0928
C 0.5352 -3.6438 -0.4379
C 1.3007 -3.0229 0.7332
C 0.0829 1.3902 0.9528
C 0.6543 1.5602 2.2994
C 2.0294 1.9365 2.0321
C 2.2181 3.1870 1.0970
C 1.4286 3.2186 -0.1331
C 0.0457 2.8949 0.3691
C 0.1611 -0.4000 -1.8363
C -1.4466 -0.6301 -2.1157
C -2.2768 0.4766 -1.4773
C -1.9775 1.7671 -2.2373
C -0.4684 1.9556 -2.5834
C 0.3587 0.7207 -2.9174
Cu 3.5260 -0.0694 0.0288
C 5.6760 -0.0694 0.0288
N 6.4767 1.0921 0.1911
C 6.2515 2.5645 0.2580
C 5.3764 3.1513 1.1916
C 4.8538 2.4928 2.4492
C 4.6571 0.9578 2.6869
C 5.3429 3.2372 3.6562
C 4.9918 4.5297 1.0654
C 5.5929 5.3894 0.2121
C 6.6477 4.9251 -0.5194
C 6.9790 3.5352 -0.5544
C 8.0204 3.1580 -1.5815
C 7.3658 3.4812 -2.9235
C 9.3951 3.8722 -1.4754
C 7.7021 0.6273 0.4565
C 7.6898 -0.7431 0.4521
N 6.4407 -1.2124 0.1777
C 6.0203 -2.6344 0.1779
C 6.5279 -3.6071 1.1683
C 7.5575 -3.3557 2.3050
C 7.0436 -3.7171 3.7100
C 8.8441 -4.1748 2.0573
C 6.0865 -4.9511 1.1043
C 5.2021 -5.3914 0.1515
C 4.7469 -4.5274 -0.8123
C 5.1360 -3.1682 -0.8609
C 4.7868 -2.5478 -2.2415
C 4.2402 -1.1345 -2.3919
C 6.0584 -2.7295 -3.0747
H 1.2434 -1.3906 2.1128
H -1.2253 -0.9592 1.9448
H -0.7999 -2.6358 2.4484
H -1.3542 -1.7377 -0.1642
H -2.6187 -2.5824 0.6727
H -1.5026 -4.0849 -1.0220
H -1.0979 -4.6053 0.6582
H 0.6591 -2.9900 -1.2945
H 0.9533 -4.6285 -0.7464
H 2.3851 -2.9845 0.5011
H 1.1916 -3.7554 1.5743
H -0.9603 1.1423 1.1589
H 0.6240 0.6281 2.8926
H 0.1799 2.3812 2.8857
H 2.5713 1.1194 1.5552
H 2.3656 2.0197 3.0751
H 3.1641 3.1369 0.5956
H 2.0204 4.1155 1.6674
H 1.8340 2.4615 -0.8544
H 1.5573 4.2149 -0.6288
H -0.7125 3.1845 -0.3653
H -0.2507 3.6592 1.1264
H 0.6656 -1.2485 -2.3082
H -1.9430 -1.6058 -1.9552
H -1.7096 -0.6339 -3.2014
H -2.0451 0.4983 -0.4116
H -3.3772 0.2890 -1.5114
H -2.4096 2.6287 -1.6709
H -2.5244 1.7097 -3.1950
H 0.0714 2.1224 -1.7569
H -0.3193 2.8367 -3.2361
H 1.4330 0.9631 -3.0293
H 0.0086 0.3973 -3.9255
H 3.9485 2.9551 2.5689
H 5.5468 0.3419 2.8576
H 5.3727 0.2664 2.2804
H 4.1343 0.7516 3.6499
H 6.4312 3.1577 3.6518
H 4.8181 2.8532 4.5565
H 5.0360 4.3221 3.6066
H 4.2020 4.9708 1.6666
H 5.2629 6.4255 0.1764
H 7.1619 5.6715 -1.1101
H 8.2210 2.0778 -1.5307
H 7.1089 4.5620 -3.0002
H 6.4129 2.9122 -2.9901
H 8.0307 3.2378 -3.7644
H 9.3357 4.9579 -1.7101
H 10.0800 3.4284 -2.2336
H 9.8816 3.7431 -0.4843
H 8.5477 1.2634 0.7040
H 8.5770 -1.3151 0.6752
H 7.8415 -2.3018 2.3757
H 6.7671 -4.7891 3.7982
H 6.1775 -3.0841 3.9789
H 7.8526 -3.5396 4.4565
H 8.6450 -5.2698 2.0715
H 9.6063 -3.9883 2.8473
H 9.2813 -3.8908 1.0806
H 6.4375 -5.7055 1.7982
H 4.9066 -6.4360 0.1248
H 4.1272 -4.9728 -1.5827
H 4.0043 -3.1666 -2.7461
H 4.9804 -0.3795 -2.1362
H 3.2733 -1.0295 -1.8656
H 4.0639 -0.9134 -3.4639
H 6.8680 -2.1351 -2.6056
H 5.9774 -2.4473 -4.1459
H 6.3148 -3.8126 -3.0618
