49
 
P 1.0035 0.0704 0.0709
C 0.2426 1.4869 0.9523
C -1.1143 1.8627 0.9854
C -1.5247 2.9633 1.7671
C -0.6036 3.6801 2.5381
C 0.7366 3.3097 2.5292
C 1.1544 2.2325 1.7397
C 0.5909 0.3767 -1.6574
C 1.6104 0.4403 -2.6100
C 1.2985 0.5194 -3.9734
C -0.0347 0.5287 -4.3960
C -1.0619 0.4359 -3.4567
C -0.7536 0.3495 -2.0940
C 0.5079 -1.4970 0.8429
C 1.4898 -2.3600 1.3416
C 1.1021 -3.6075 1.8682
C -0.2453 -3.9851 1.8829
C -1.1992 -3.1106 1.3629
O -2.3758 -3.4357 1.3494
N -0.8082 -1.8900 0.8550
Cu 3.4635 0.0704 0.0709
N 5.5635 0.0704 0.0709
C 6.2256 1.1070 -0.5006
N 7.5769 1.0686 -0.6133
C 8.2925 0.0031 -0.1567
O 9.6366 -0.0455 -0.3167
C 10.3537 0.9165 -0.9997
C 7.6247 -1.0585 0.4636
C 6.2337 -0.9997 0.5682
H -1.8641 1.3318 0.4313
H -2.5640 3.2622 1.7908
H -0.9271 4.5171 3.1497
H 1.4505 3.8540 3.1410
H 2.2051 1.9652 1.7694
H 2.6441 0.3843 -2.2983
H 2.0923 0.5524 -4.7057
H -0.2709 0.5846 -5.4518
H -2.0947 0.4070 -3.7890
H -1.5730 0.2204 -1.4041
H 2.5424 -2.0529 1.2930
H 1.8401 -4.2965 2.2567
H -0.5450 -4.9517 2.2825
H -1.5455 -1.2711 0.4494
H 5.6734 1.9485 -0.8951
H 11.4315 0.6556 -0.9866
H 10.2177 1.9076 -0.5176
H 10.0156 0.9702 -2.0584
H 8.1640 -1.9225 0.8320
H 5.6811 -1.8192 1.0095
