50
 
P 0.9860 0.0980 0.0139
C 0.2175 1.0305 1.3553
C -1.1485 1.2934 1.4905
C -1.6160 1.9733 2.6291
C -0.7289 2.3802 3.6349
C 0.6322 2.1133 3.5093
C 1.1019 1.4467 2.3761
C 0.5217 1.0748 -1.4291
C 0.9378 2.3870 -1.6208
C 0.5281 3.0890 -2.7642
C -0.2921 2.4805 -3.7237
C -0.6920 1.1559 -3.5562
C -0.2853 0.4521 -2.4170
C 0.5174 -1.5900 0.3173
C -0.8418 -1.9560 0.3024
C -1.2171 -3.2761 0.5491
C -0.2358 -4.2347 0.8077
C 1.1240 -3.8746 0.7935
C 1.5103 -2.5438 0.5381
Cu 3.4460 0.0980 0.0139
C 5.5960 0.0980 0.0139
N 6.4557 1.1573 -0.0490
C 6.2056 2.5925 -0.1112
C 7.6998 0.6286 -0.0223
Cl 9.2054 1.5392 -0.0725
C 7.6018 -0.7342 0.0533
Cl 8.9569 -1.8571 0.1029
N 6.2948 -1.0642 0.0796
C 5.7512 -2.4161 0.1450
H -1.8450 0.9749 0.7327
H -2.6703 2.1791 2.7417
H -1.0933 2.8958 4.5158
H 1.3211 2.4135 4.2932
H 2.1647 1.2325 2.3130
H 1.5752 2.8550 -0.8881
H 0.8458 4.1098 -2.9065
H -0.6134 3.0325 -4.5991
H -1.3176 0.6806 -4.3080
H -0.6105 -0.5796 -2.3178
H -1.6144 -1.2271 0.0934
H -2.2670 -3.5529 0.5415
H -0.5350 -5.2565 1.0111
H 1.8695 -4.6330 0.9821
H 2.5678 -2.2172 0.5056
H 5.1240 2.8219 -0.1112
H 6.6846 3.0083 -1.0259
H 6.6908 3.0811 0.7653
H 6.5705 -3.1678 0.1752
H 5.1365 -2.6177 -0.7556
H 5.1392 -2.5337 1.0608
