32
 
P 1.2276 0.2600 0.4711
F -0.2930 0.9070 0.6567
F 0.7825 -0.6904 -0.8510
F 1.1809 -0.5368 1.9554
Ni 3.6029 0.1689 0.1899
P 5.9509 0.0074 -0.0426
C 6.7668 -1.5827 -0.3175
C 6.4215 1.0254 -1.4806
C 5.4419 1.6860 -2.2366
C 5.7929 2.3944 -3.3925
C 7.1283 2.4824 -3.7900
C 8.1263 1.9103 -2.9978
C 7.7791 1.1883 -1.8437
C 6.4300 0.6001 1.5855
C 5.4270 1.0208 2.4682
C 5.7814 1.6265 3.6849
C 7.1293 1.7918 4.0293
C 8.1312 1.3481 3.1624
C 7.7852 0.7656 1.9356
H 6.3679 -1.9901 -1.2751
H 6.3938 -2.2684 0.4772
H 7.8650 -1.5489 -0.3271
H 4.4031 1.6496 -1.9440
H 5.0236 2.8654 -3.9894
H 7.3853 3.0038 -4.7055
H 9.1654 2.0143 -3.2930
H 8.5726 0.7458 -1.2542
H 4.3821 0.9153 2.1905
H 5.0158 1.9885 4.3579
H 7.3985 2.2746 4.9627
H 9.1742 1.4793 3.4330
H 8.5758 0.4719 1.2568
