64
 
P 1.0820 -0.0551 0.0155
C 0.3413 1.0866 -1.2281
C 1.1724 1.8120 -2.1672
C 2.6717 1.7689 -2.2501
C 0.5977 2.6809 -3.1015
C -0.7681 2.8852 -3.1216
C -1.5862 2.1940 -2.2281
C -1.0423 1.2894 -1.2995
C 0.6694 -1.7816 -0.3960
C 1.0380 -2.4540 -1.5812
C 1.8746 -1.8171 -2.6392
C 0.6335 -3.7921 -1.7733
C -0.1061 -4.4681 -0.7997
C -0.4334 -3.8265 0.3853
C -0.0449 -2.5063 0.5845
C 0.6026 0.8373 1.5512
C 1.4132 1.7469 2.2826
C 2.7304 2.2548 1.8038
C 0.9705 2.2283 3.5326
C -0.2418 1.8126 4.0783
C -1.0426 0.9240 3.3769
C -0.6323 0.4531 2.1292
Ni 3.5420 -0.0551 0.0155
N 5.6420 -0.0551 0.0155
C 6.2751 -1.2325 0.2881
C 5.4770 -2.4341 0.6821
C 7.6761 -1.2896 0.3392
C 8.4271 -0.1447 0.0572
C 9.9270 -0.1764 0.0589
C 7.7633 1.0451 -0.2380
C 6.3616 1.0843 -0.2319
C 5.6799 2.3385 -0.6705
H 3.1112 1.2491 -1.4181
H 3.0753 2.8046 -2.2237
H 3.0223 1.2920 -3.1933
H 1.2240 3.2311 -3.8020
H -1.1812 3.5915 -3.8313
H -2.6495 2.3724 -2.2566
H -1.6997 0.7675 -0.6240
H 2.1646 -0.7944 -2.3739
H 1.3189 -1.8023 -3.5979
H 2.8130 -2.3993 -2.7461
H 0.9004 -4.3210 -2.6780
H -0.4112 -5.4958 -0.9509
H -0.9855 -4.3502 1.1584
H -0.3040 -2.0774 1.5337
H 2.9263 1.9573 0.7873
H 3.5278 1.9867 2.5378
H 2.6750 3.3548 1.7257
H 1.5752 2.9264 4.0977
H -0.5609 2.1791 5.0468
H -1.9806 0.5893 3.8063
H -1.2951 -0.2390 1.6342
H 4.3873 -2.2200 0.6383
H 5.7338 -2.6986 1.7354
H 5.7211 -3.2936 0.0293
H 8.1735 -2.2153 0.6031
H 10.3142 -1.1757 0.3487
H 10.3182 0.5763 0.7755
H 10.3031 0.0643 -0.9585
H 8.3373 1.9294 -0.4923
H 6.4012 3.1556 -0.8864
H 4.9536 2.6873 0.0807
H 5.1889 2.1208 -1.6374
