35
 
P 0.9501 -0.0677 -0.0541
C -0.0097 1.4750 -0.0960
C 0.5133 -0.5234 -1.7569
C 0.4776 -1.0050 1.3851
C -0.8749 -1.3268 1.5716
C -1.2739 -2.0754 2.6788
C -0.3222 -2.5000 3.6086
C 1.0338 -2.1878 3.4200
C 1.4426 -1.4443 2.2971
Ni 3.4101 -0.0677 -0.0541
N 5.5101 -0.0677 -0.0541
C 6.1567 0.7264 -0.9288
C 5.3180 1.6122 -1.7832
C 7.5600 0.6818 -0.9989
C 8.2546 -0.2069 -0.1653
C 7.5512 -1.0128 0.7335
C 6.1610 -0.9189 0.7804
H -1.1020 1.3371 -0.1207
H 0.3489 2.1025 -0.9425
H 0.2736 2.0319 0.8285
H -0.5987 -0.5865 -1.8170
H 0.8905 -1.5541 -1.9341
H 0.9023 0.1708 -2.5201
H -1.6196 -1.0077 0.8523
H -2.3199 -2.3259 2.8124
H -0.6401 -3.0766 4.4691
H 1.7598 -2.5305 4.1447
H 2.4972 -1.2050 2.1164
H 4.2224 1.4055 -1.5584
H 5.5373 1.4085 -2.8521
H 5.5758 2.6699 -1.5581
H 8.1070 1.3043 -1.6946
H 9.3338 -0.2787 -0.2162
H 8.0724 -1.7115 1.3765
H 5.5911 -1.5475 1.4528
