27
 
P 1.0615 -0.0728 0.1092
Cl -0.5979 0.2062 -1.0774
Cl 0.6085 -1.9836 0.8195
Cl 0.7053 1.4973 1.4500
Ni 3.4452 -0.0743 0.1216
C 5.5031 -0.0686 0.0344
N 6.2611 1.0418 -0.0149
C 5.8028 2.4199 -0.0256
C 7.5414 0.6253 -0.0529
C 7.5404 -0.7505 -0.0619
N 6.2590 -1.1729 -0.0166
C 5.8020 -2.5244 -0.0038
C 4.5911 -2.8645 0.6255
C 4.2115 -4.2062 0.7065
C 4.9968 -5.1976 0.1094
C 6.1660 -4.8527 -0.5713
C 6.5811 -3.5251 -0.6054
H 4.6905 2.4514 -0.0236
H 6.1813 2.9274 -0.9408
H 6.1998 2.9434 0.8682
H 8.4133 1.2658 -0.0731
H 8.4133 -1.3904 -0.0718
H 3.9754 -2.1195 1.1022
H 3.3130 -4.4796 1.2415
H 4.7002 -6.2339 0.1755
H 6.7621 -5.6112 -1.0603
H 7.5028 -3.2737 -1.1162
