42
 
P 1.0406 -0.0333 0.0851
C 0.2537 -1.0333 1.3690
C -1.1249 -1.0778 1.5626
C -1.6685 -1.8987 2.5571
C -0.8406 -2.6897 3.3626
Cl -1.5427 -3.7109 4.6059
C 0.5425 -2.6639 3.1727
C 1.0899 -1.8369 2.1830
C 0.4188 1.5731 0.5788
C 0.8018 2.2266 1.7458
C 0.2195 3.4612 2.0688
C -0.7451 4.0386 1.2292
Cl -1.5134 5.5522 1.6721
C -1.1044 3.4012 0.0410
C -0.5185 2.1786 -0.2869
C 0.6794 -0.9294 -1.4150
C -0.6490 -1.1743 -1.8281
C -0.9017 -1.8763 -3.0077
C 0.1668 -2.3248 -3.7866
Cl -0.1624 -3.2387 -5.2510
C 1.4906 -2.0487 -3.3932
C 1.7558 -1.3465 -2.1990
Ni 3.5006 -0.0333 0.0851
C 5.6506 -0.0333 0.0851
N 6.3979 -0.6451 -0.8530
C 7.6628 -0.3978 -0.4695
C 7.6347 0.3542 0.6835
O 6.3797 0.5621 1.0008
H -1.7743 -0.4767 0.9502
H -2.7381 -1.9204 2.6985
H 1.1872 -3.2858 3.7885
H 2.1682 -1.8433 2.0490
H 1.5396 1.7802 2.3951
H 0.5081 3.9639 2.9791
H -1.8437 3.8429 -0.6208
H -0.8198 1.6972 -1.2122
H -1.4976 -0.8290 -1.2536
H -1.9262 -2.0737 -3.3141
H 2.3049 -2.3881 -4.0158
H 2.7840 -1.1098 -1.8475
H 8.5439 -0.7421 -0.9940
H 8.4862 0.7183 1.2427
