56
 
P 1.0269 -0.0209 -0.0940
C 0.2674 -1.6607 -0.8667
C -1.2706 -1.7417 -0.9193
C 0.7130 -1.9707 -2.3330
C 0.8007 -2.8907 -0.0898
C 0.5758 -0.0571 1.8690
C 1.2847 -1.2098 2.6108
C 0.9648 1.1615 2.7873
C -0.9568 -0.1187 2.1264
C 0.5542 1.4136 -1.2113
C 1.0648 2.8775 -0.8465
C 2.6059 2.8649 -0.8158
C 0.5751 3.8972 -1.9004
C 0.5558 3.4523 0.4828
Ni 3.4869 -0.0209 -0.0940
N 5.5869 -0.0209 -0.0940
C 5.7663 1.0254 -1.1139
N 6.3450 0.4037 0.9725
C 7.4984 -0.1689 0.9567
C 7.4807 -1.2343 0.0733
C 6.2221 -1.2151 -0.4927
H -1.6900 -1.0035 -1.6250
H -1.7718 -1.6333 0.0272
H -1.5822 -2.7656 -1.2365
H 0.4221 -1.1894 -3.0576
H 0.1890 -2.9030 -2.6838
H 1.7894 -2.2268 -2.4368
H 0.2343 -3.0474 0.8258
H 1.9053 -2.8164 0.0680
H 0.6159 -3.8575 -0.6071
H 2.3727 -1.1737 2.4008
H 0.8902 -2.1975 2.4432
H 1.1329 -1.1482 3.7121
H 2.0489 1.3879 2.8296
H 0.6873 0.9526 3.8521
H 0.2966 2.0391 2.7114
H -1.4183 -1.0607 1.8589
H -1.4765 0.7512 1.6565
H -1.1998 -0.0844 3.2126
H -0.5559 1.4416 -1.2591
H 0.9350 1.1768 -2.2241
H 2.9811 2.6028 -1.8138
H 3.0185 2.0830 -0.1291
H 2.9853 3.8797 -0.5375
H 0.9201 3.6188 -2.9123
H 0.9717 4.9170 -1.6725
H -0.5360 3.9794 -1.8968
H 1.1414 2.9842 1.2428
H -0.5514 3.3824 0.6086
H 0.8343 4.5219 0.6317
H 4.7878 1.4692 -1.3481
H 6.2763 0.6726 -2.0382
H 6.4123 1.8779 -0.7599
H 8.3274 0.1200 1.5902
H 8.2530 -1.9765 -0.0782
H 5.8081 -1.9529 -1.1665
