53
 
P 1.0562 -0.0746 -0.0983
Cl -0.3902 -0.7476 -1.4096
Cl 0.5907 -1.3540 1.4849
Cl 0.5273 1.9339 -0.0275
Ni 3.4091 0.0120 0.1942
P 5.7466 0.0369 0.0932
N 6.5735 -1.4935 -0.1737
C 6.0051 -2.4597 0.8169
C 4.4557 -2.6316 0.6823
C 6.6203 -3.8479 0.6635
C 8.0326 -1.3873 -0.1924
C 8.4785 0.0231 0.0863
C 10.0186 0.0430 0.0939
C 7.9267 0.9646 -1.0460
N 6.4291 0.9839 -1.2435
C 5.9111 2.3933 -1.1263
C 6.4901 3.4047 -2.0936
C 4.3704 2.5067 -1.1792
N 6.4253 0.3880 1.6885
C 5.8994 1.7068 2.1724
C 4.3586 1.7674 2.2519
C 6.4982 2.2082 3.4722
C 7.9234 0.4362 1.5041
H 6.2126 -2.1043 1.8517
H 4.1646 -2.9440 -0.3408
H 3.8894 -1.7498 0.9690
H 4.0927 -3.3837 1.4139
H 6.4064 -4.2294 -0.3537
H 6.1989 -4.5150 1.4413
H 7.7092 -3.8638 0.8281
H 8.3938 -1.7338 -1.1870
H 8.5092 -2.0063 0.5845
H 10.4127 -0.2859 -0.8927
H 10.4111 -0.6544 0.8682
H 10.3972 1.0600 0.3139
H 8.3867 0.6802 -2.0164
H 8.3395 1.9548 -0.7675
H 6.2888 2.8463 -0.2460
H 6.1766 3.1417 -3.1124
H 7.5918 3.4825 -2.0137
H 6.1005 4.4110 -1.7945
H 4.0053 2.3139 -2.1991
H 4.0447 3.4933 -0.7762
H 3.8195 1.7943 -0.5931
H 6.2535 2.5004 1.5691
H 3.9850 1.0764 3.0297
H 3.8343 1.5199 1.3345
H 4.0287 2.8133 2.4125
H 6.2173 1.5361 4.2930
H 6.1119 3.2440 3.6360
H 7.5995 2.3245 3.4091
H 8.3675 -0.2272 2.2787
H 8.3411 1.4478 1.6557
