79
 
P 1.0934 0.0352 0.0062
C 0.3488 -0.1905 1.8277
C -1.1860 -0.2022 1.9239
C 0.7606 -1.4784 2.6283
C 0.8937 0.9387 2.7345
C 0.6227 1.9101 -0.5864
C 1.3271 2.9681 0.2786
C 0.9852 2.4404 -2.0329
C -0.9097 2.1658 -0.5995
C 0.6272 -1.4652 -1.0277
C 1.1427 -1.5459 -2.5342
C 2.6831 -1.4946 -2.5192
C 0.6792 -2.8555 -3.2000
C 0.6263 -0.4582 -3.4822
Ni 3.5534 0.0352 0.0062
P 6.0134 0.0352 0.0062
N 6.9530 -1.0998 -0.9987
C 6.4950 -1.0252 -2.3821
C 8.3987 -1.3466 -0.9326
C 8.9183 -1.2858 0.4459
N 9.1833 0.0794 1.0135
C 8.7041 1.4729 0.6787
C 8.0535 1.7506 -0.6803
N 6.5756 1.5135 -0.7744
C 5.7829 2.6123 -0.2176
N 6.4330 -0.7341 1.6384
C 5.4478 -1.6566 2.2301
C 7.4427 -0.2633 2.6733
C 8.9782 -0.1135 2.4177
H -1.6127 -1.1090 1.4612
H -1.6775 0.6507 1.5111
H -1.4998 -0.1428 2.9933
H 0.4675 -2.4235 2.1376
H 0.2009 -1.4880 3.6080
H 1.8179 -1.5110 2.9705
H 0.3250 1.8459 2.5770
H 2.0014 1.0545 2.6151
H 0.6961 0.7896 3.8177
H 2.4139 2.7552 0.3113
H 0.9324 3.1118 1.2640
H 1.1613 3.9956 -0.1116
H 2.0684 2.4880 -2.2658
H 0.6444 3.4997 -2.1561
H 0.3365 2.0913 -2.8584
H -1.3804 2.1701 0.3671
H -1.4305 1.4857 -1.3170
H -1.1474 3.2084 -0.9040
H -0.4825 -1.5393 -1.0356
H 1.0246 -2.3557 -0.5035
H 3.0725 -2.3485 -1.9479
H 3.0697 -0.5845 -2.0199
H 3.0712 -1.5319 -3.5642
H 1.0347 -3.7213 -2.6174
H 1.0938 -2.9357 -4.2358
H -0.4308 -2.8941 -3.2964
H 1.1877 0.3987 -3.2107
H -0.4858 -0.3412 -3.4884
H 0.9475 -0.5982 -4.5415
H 5.3893 -0.9631 -2.4213
H 6.7948 -1.9385 -2.9360
H 6.9259 -0.1261 -2.8666
H 9.0188 -0.7728 -1.6359
H 8.5202 -2.4163 -1.2227
H 9.8355 -1.8991 0.5742
H 8.2292 -1.9442 1.0241
H 9.6011 2.1237 0.8022
H 8.0472 1.9560 1.4295
H 8.6284 1.2687 -1.4832
H 8.2292 2.8333 -0.8683
H 6.0720 3.5788 -0.6780
H 5.8860 2.6756 0.8875
H 4.7124 2.4428 -0.4640
H 4.3977 -1.3587 2.0454
H 5.5239 -1.7015 3.3495
H 5.6964 -2.6742 1.8781
H 7.1308 0.7515 2.9070
H 7.5274 -1.0606 3.4616
H 9.6149 -0.9717 2.7741
H 9.4109 0.7189 3.0283
