52
 
P 1.0663 0.0677 -0.0319
C 0.2712 -0.9550 1.3361
C -1.2531 -0.9237 1.3042
C 0.7443 -2.4329 1.2027
C 0.7511 -0.4799 2.7280
C 0.5005 1.6993 0.5192
C 1.3011 2.5842 1.2476
C 0.7851 3.8321 1.6372
C -0.5170 4.2086 1.2825
C -1.3025 3.3515 0.5158
C -0.7943 2.1109 0.1301
C 0.7180 -0.6815 -1.6363
C -0.6038 -0.8654 -2.1202
C -0.8336 -1.4533 -3.3664
C 0.2470 -1.8483 -4.1504
C 1.5602 -1.6439 -3.6911
C 1.8042 -1.0560 -2.4302
Ni 3.5263 0.0677 -0.0319
C 5.6763 0.0677 -0.0319
N 6.4353 0.3770 1.0290
C 5.9528 0.7406 2.3518
C 7.7153 0.2591 0.6209
C 7.7077 -0.1206 -0.7107
N 6.4232 -0.2428 -1.1020
C 5.9175 -0.6127 -2.4162
H -1.6308 -1.3476 0.3629
H -1.6216 0.1042 1.4521
H -1.6700 -1.5506 2.1182
H 0.3448 -2.9264 0.2922
H 0.4142 -3.0400 2.0778
H 1.8559 -2.5058 1.1701
H 0.5223 0.5862 2.9029
H 1.8432 -0.6443 2.8677
H 0.2314 -1.0562 3.5270
H 2.3072 2.3031 1.5245
H 1.3913 4.5113 2.2185
H -0.9166 5.1667 1.5924
H -2.3053 3.6454 0.2219
H -1.4237 1.4722 -0.4759
H -1.4769 -0.5582 -1.5688
H -1.8500 -1.5989 -3.7274
H 0.0581 -2.3033 -5.1178
H 2.3810 -1.9447 -4.3242
H 2.8249 -0.8691 -2.0401
H 4.8362 0.7350 2.3619
H 6.3222 1.7526 2.6166
H 6.3293 0.0085 3.0990
H 8.5863 0.4328 1.2394
H 8.5707 -0.2930 -1.3410
H 6.7573 -0.8030 -3.1177
H 5.2901 0.2106 -2.8208
H 5.2985 -1.5294 -2.3301
