57
 
P 0.9791 0.0777 0.0594
C 0.4328 1.8471 0.1119
C -0.9343 2.2211 -0.0529
C -1.3213 3.5765 -0.0826
C -0.3626 4.5795 0.0388
C 0.9851 4.2319 0.1787
C 1.3838 2.8766 0.2122
C 0.6203 -0.8898 -1.4187
C -0.0822 -0.2368 -2.4601
C -0.4185 -0.9164 -3.6324
C -0.0589 -2.2546 -3.7777
C 0.6512 -2.9024 -2.7589
C 0.9987 -2.2211 -1.5847
C 0.1059 -1.0740 1.2513
C 0.3435 -0.6553 2.7144
C -0.1306 0.5903 3.1467
C 0.1040 1.0510 4.4457
C 0.7979 0.2616 5.3613
C 1.2433 -1.0064 4.9816
C 1.0253 -1.4686 3.6658
Ni 3.4391 0.0777 0.0594
N 5.5391 0.0777 0.0594
C 6.1570 1.2433 0.3439
C 7.5381 1.3494 0.2468
C 8.3184 0.2479 -0.1897
N 9.7492 0.3760 -0.4235
C 10.4924 1.6138 -0.1947
C 10.5621 -0.6925 -0.9957
C 7.6165 -0.9678 -0.4307
C 6.2292 -1.0304 -0.2872
H -1.7166 1.4834 -0.1780
H -2.3634 3.8624 -0.2102
H -0.6654 5.6253 0.0122
H 1.7177 5.0257 0.2503
H 2.4371 2.6169 0.2953
H -0.3769 0.8038 -2.3790
H -0.9599 -0.4081 -4.4250
H -0.3276 -2.7869 -4.6812
H 0.9319 -3.9372 -2.8783
H 1.5497 -2.7293 -0.8101
H 0.5613 -2.0839 1.1369
H -0.9763 -1.1477 1.0439
H -0.6796 1.2149 2.4665
H -0.2530 2.0288 4.7387
H 0.9819 0.6347 6.3644
H 1.7640 -1.6186 5.7132
H 1.3971 -2.4536 3.4096
H 5.5627 2.1014 0.6313
H 7.9298 2.3191 0.4850
H 9.9177 2.4518 0.2171
H 10.9165 1.9729 -1.1570
H 11.3229 1.4272 0.5168
H 10.0321 -1.6265 -1.2173
H 11.3922 -0.9449 -0.3043
H 10.9904 -0.3483 -1.9619
H 8.0792 -1.8794 -0.7585
H 5.6941 -1.9440 -0.5133
