49
 
P 0.9598 0.0600 -0.0692
C 0.4807 -0.5083 1.5897
C 0.1299 -1.8273 1.9265
C -0.3849 -2.1153 3.1961
C -0.5534 -1.1001 4.1416
C -0.2068 0.2101 3.8222
C 0.2984 0.5036 2.5556
C 0.6663 1.7128 -0.7684
C 1.1668 2.8522 -0.1048
C 0.9533 4.1348 -0.6293
C 0.2484 4.2934 -1.8233
C -0.2589 3.1734 -2.4840
C -0.0586 1.8919 -1.9585
C 0.0748 -1.2002 -1.0721
C -1.4050 -1.3209 -0.9183
C -2.1599 -0.4438 -0.1272
C -3.5214 -0.6565 0.0454
C -4.1460 -1.7397 -0.5757
C -3.4089 -2.6024 -1.3913
C -2.0417 -2.3921 -1.5676
Ni 3.4198 0.0600 -0.0692
N 5.5198 0.0600 -0.0692
C 6.1629 -1.0726 0.3180
F 5.4403 -2.1582 0.6871
C 7.5590 -1.1161 0.3326
C 8.2793 0.0162 -0.0555
F 9.6349 -0.0065 -0.0487
C 7.5981 1.1714 -0.4505
C 6.1994 1.1734 -0.4501
F 5.5159 2.2815 -0.8262
H 0.2113 -2.6359 1.2233
H -0.6739 -3.1274 3.4404
H -0.9648 -1.3248 5.1169
H -0.3495 1.0037 4.5470
H 0.5196 1.5373 2.3300
H 1.7208 2.7614 0.8200
H 1.3366 5.0086 -0.1151
H 0.0935 5.2830 -2.2368
H -0.8084 3.2978 -3.4077
H -0.4693 1.0519 -2.4935
H 0.5371 -2.1776 -0.8300
H 0.3350 -1.0365 -2.1411
H -1.7095 0.3994 0.3719
H -4.0825 0.0190 0.6737
H -5.2009 -1.9079 -0.4231
H -3.8918 -3.4408 -1.8755
H -1.4744 -3.0783 -2.1901
H 8.0752 -2.0164 0.6408
H 8.1479 2.0532 -0.7530
