54
 
P 1.0624 -0.0582 0.0521
C 0.2495 0.1299 -1.6130
C -1.2771 0.0249 -1.5925
C 0.6598 1.5173 -2.1677
C 0.8192 -0.9280 -2.5810
C 0.5903 -1.7691 0.4043
C 1.3561 -2.8789 0.0316
C 0.9523 -4.1670 0.4239
C -0.2018 -4.3476 1.1984
C -0.9577 -3.2443 1.5853
C -0.5608 -1.9665 1.1964
C 0.5851 1.3531 1.0791
C -0.7749 1.6178 1.3534
C -1.1551 2.6935 2.1501
C -0.1813 3.5065 2.7198
C 1.1782 3.2311 2.4972
C 1.5697 2.1537 1.6706
Ni 3.5224 -0.0582 0.0521
C 5.6724 -0.0582 0.0521
N 6.3610 -0.9602 -0.5235
C 5.7764 -2.1108 -1.1644
C 7.7781 -0.7057 -0.3791
C 7.8255 0.7299 0.1777
N 6.4795 0.9272 0.6428
C 6.0261 2.0109 1.4795
H -1.7319 0.8711 -1.0592
H -1.5976 -0.9405 -1.1545
H -1.6774 0.0954 -2.6247
H 0.2893 2.3415 -1.5213
H 0.2549 1.6789 -3.1900
H 1.7684 1.6128 -2.2271
H 0.5615 -1.9554 -2.2669
H 1.9276 -0.8419 -2.6500
H 0.4018 -0.7903 -3.6013
H 2.2601 -2.7439 -0.5461
H 1.5379 -5.0294 0.1405
H -0.5082 -5.3384 1.5105
H -1.8456 -3.3743 2.1954
H -1.1606 -1.1332 1.5296
H -1.5673 0.9997 0.9782
H -2.2086 2.8859 2.3304
H -0.4902 4.3383 3.3433
H 1.9173 3.8597 2.9730
H 2.6276 1.9119 1.4863
H 4.6522 -2.0481 -1.1139
H 6.1305 -3.0304 -0.6493
H 6.1094 -2.1514 -2.2240
H 8.3506 -0.7795 -1.3280
H 8.1686 -1.4304 0.3694
H 7.9766 1.4620 -0.6488
H 8.6097 0.8525 0.9532
H 6.8831 2.6639 1.7553
H 5.5983 1.5945 2.4174
H 5.2566 2.6100 0.9548
