73
 
P 1.0815 0.0469 0.0340
C 0.2025 1.6658 -0.3838
C 0.6953 2.7103 0.6096
C 2.1922 3.0528 0.3459
C 2.4047 3.7334 -0.9912
C 1.9100 2.8034 -2.1059
C 0.4604 2.3096 -1.8298
C 0.5817 -1.1015 -1.3950
C 1.1514 -2.5523 -1.2954
C 0.4357 -3.4286 -0.2463
C -1.0743 -3.5223 -0.5335
C -1.7128 -2.1244 -0.6650
C -0.9549 -1.2439 -1.6720
C 0.8561 -0.4201 1.9802
C 1.6958 0.0352 3.0702
C 2.7590 1.0140 2.9382
C 1.6297 -0.4763 4.3991
C 0.7645 -1.4797 4.7530
C -0.0951 -1.9530 3.7945
C -0.0629 -1.4430 2.4696
Ni 3.5415 0.0469 0.0340
C 5.6915 0.0469 0.0340
N 6.4119 -0.7141 -0.7098
C 5.8701 -1.7539 -1.5703
C 6.9702 -2.6435 -2.1737
C 7.8250 -0.4745 -0.4689
C 7.8442 0.8158 0.3446
N 6.4978 0.8963 0.8353
C 6.0723 1.7600 1.9170
C 6.4820 3.2187 1.7308
H -0.8888 1.4960 -0.2885
H 0.5420 2.3000 1.6243
H 0.0828 3.6353 0.5293
H 2.8201 2.1540 0.2482
H 2.5769 3.6823 1.1708
H 3.4945 3.9337 -1.1313
H 1.8735 4.7073 -0.9959
H 2.5848 1.9262 -2.1881
H 1.9819 3.3651 -3.0703
H 0.1481 1.6566 -2.6722
H -0.1703 3.2275 -1.9066
H 1.0245 -0.6270 -2.2941
H 2.2431 -2.5339 -1.1023
H 0.9887 -3.0635 -2.2723
H 0.6322 -3.0201 0.7430
H 0.8578 -4.4571 -0.2286
H -1.5848 -4.1102 0.2661
H -1.2237 -4.0798 -1.4859
H -1.7477 -1.5747 0.2676
H -2.7798 -2.2474 -0.9506
H -1.4453 -0.2539 -1.7379
H -1.0840 -1.7390 -2.6594
H 2.9338 1.1758 1.9101
H 3.6905 0.5824 3.3515
H 2.4673 1.9274 3.5015
H 2.3038 -0.1253 5.1772
H 0.7752 -1.8921 5.7643
H -0.7738 -2.7517 4.0924
H -0.7733 -1.9633 1.8986
H 5.2720 -1.2921 -2.3839
H 5.2058 -2.4113 -0.9684
H 7.6704 -2.0487 -2.7973
H 6.5224 -3.4327 -2.8109
H 7.5471 -3.1439 -1.3638
H 8.4330 -0.3505 -1.3905
H 8.2071 -1.3209 0.1425
H 7.9688 1.6818 -0.3475
H 8.6382 0.8254 1.1188
H 6.5359 1.3951 2.8599
H 4.9885 1.7206 2.0074
H 7.5867 3.3123 1.6665
H 6.1466 3.7989 2.6192
H 6.0131 3.6526 0.8250
