121
 
P 1.0392 -0.0657 -0.0644
C 0.4219 -1.7837 0.7745
C -0.9361 -2.5875 1.0699
C -1.4147 -3.3480 -0.1262
C -0.3191 -4.2508 -0.6709
C 1.0102 -3.5150 -0.8407
C 1.4028 -2.8924 0.5073
C 0.2446 1.4202 1.0408
C -1.3254 1.5795 1.1662
C -1.8630 0.3614 1.8951
C -1.3249 0.1756 3.3283
C 0.1890 0.3952 3.4437
C 0.6367 1.5252 2.5429
C 0.6052 0.0349 -1.9490
C -0.7738 -0.0959 -2.4346
C -2.0463 -0.2239 -1.6509
C -1.0921 -0.0217 -3.7959
C -0.1420 0.2462 -4.7459
C -0.4988 0.3652 -6.1885
C 1.1530 0.4718 -4.3568
C 1.5603 0.4072 -3.0132
C 3.0150 0.8374 -2.8802
Ni 3.4992 -0.0657 -0.0644
C 5.6492 -0.0657 -0.0644
N 6.3670 1.1082 0.1052
C 6.0213 2.5548 0.0868
C 4.7784 3.0794 0.5979
C 3.7723 2.3222 1.4756
C 4.3558 1.0930 2.1990
C 3.4040 3.3044 2.6988
C 4.5204 4.4772 0.4817
C 5.4637 5.3740 0.0798
C 6.6761 4.9272 -0.3539
C 6.9668 3.5479 -0.4464
C 8.2695 3.2373 -1.2067
C 8.1844 3.8469 -2.6215
C 9.5580 3.7421 -0.5203
C 7.6070 0.6900 0.3906
C 7.6747 -0.6809 0.3435
N 6.4651 -1.2127 0.0149
C 6.1865 -2.7055 -0.0271
C 6.7048 -3.6500 0.9901
C 7.6258 -3.3354 2.1912
C 7.0801 -3.8017 3.5632
C 8.9790 -4.0294 1.9684
C 6.3432 -5.0258 0.9221
C 5.5090 -5.5241 -0.0425
C 5.0661 -4.7070 -1.0355
C 5.4088 -3.3459 -1.1064
C 4.7499 -2.6120 -2.2937
C 4.0448 -3.3563 -3.4513
C 3.6538 -1.9403 -1.6240
H 0.7117 -1.6095 1.7654
H -1.8383 -2.1620 1.5358
H -0.7164 -3.3282 1.8773
H -1.6801 -2.6202 -0.8670
H -2.3165 -3.9377 0.1532
H -0.6430 -4.6719 -1.6402
H -0.1532 -5.0682 0.0615
H 0.9365 -2.7152 -1.6094
H 1.7563 -4.2660 -1.1615
H 2.3978 -2.4546 0.7198
H 1.3764 -3.7006 1.2786
H 0.5819 2.3633 0.5602
H -1.8038 1.7723 0.1891
H -1.6570 2.4585 1.7670
H -1.4237 -0.3308 1.2809
H -2.9633 0.2146 1.8546
H -1.5724 -0.8351 3.7337
H -1.8294 0.9384 3.9461
H 0.8198 -0.4397 3.2192
H 0.4833 0.5383 4.5004
H 1.6814 1.5359 2.6141
H 0.1995 2.4600 2.9833
H -1.8788 -0.1251 -0.6218
H -2.6117 -1.1452 -1.8594
H -2.7583 0.5827 -1.9387
H -2.1236 -0.1356 -4.1231
H -1.5821 0.1965 -6.3642
H 0.0888 -0.3837 -6.7564
H -0.2349 1.3887 -6.5301
H 1.8541 0.7324 -5.1435
H 3.4266 1.3186 -3.7963
H 3.7112 0.0196 -3.1201
H 3.1397 1.6903 -2.1887
H 2.9132 2.0007 0.8522
H 5.2014 1.6400 2.6472
H 5.3400 0.7427 2.5471
H 3.6597 0.7850 3.0133
H 4.3433 3.5492 3.2339
H 2.7313 2.9610 3.4967
H 2.9045 4.2596 2.4738
H 3.6086 4.9588 0.7784
H 5.2398 6.4359 0.1191
H 7.3717 5.6921 -0.6701
H 8.3772 2.1570 -1.3674
H 8.0604 4.9514 -2.5946
H 7.3126 3.4247 -3.1630
H 9.1097 3.6466 -3.1963
H 9.6588 4.8473 -0.5734
H 10.4425 3.3152 -1.0467
H 9.6165 3.4214 0.5396
H 8.4169 1.3524 0.6670
H 8.5891 -1.2072 0.5727
H 7.8029 -2.2573 2.2928
H 6.9070 -4.8987 3.6130
H 6.1399 -3.2776 3.8181
H 7.8315 -3.5835 4.3567
H 8.8654 -5.1366 1.9320
H 9.6949 -3.8056 2.7882
H 9.4052 -3.6699 1.0120
H 6.6822 -5.7588 1.6430
H 5.1982 -6.5641 -0.0369
H 4.4017 -5.1677 -1.7457
H 5.4726 -1.9212 -2.7931
H 3.2082 -4.0144 -3.1242
H 4.7690 -3.9029 -4.0750
H 3.5558 -2.5864 -4.0994
H 3.2428 -2.6311 -0.9732
H 2.8283 -1.5362 -2.1752
H 4.2414 -1.2353 -1.2574
