67
 
P 0.9948 -0.0777 -0.0628
C -0.0232 -0.3986 1.6066
C 0.2059 0.4001 2.9624
C -0.5445 1.7613 3.0960
C -2.0140 1.6094 2.6917
C -2.2511 0.7394 1.4312
C -1.5443 -0.6079 1.5302
C 0.6178 1.7145 -0.6907
C 1.1843 2.6991 0.2816
C 2.6827 2.7932 0.1516
C 3.1275 3.3428 -1.1831
C 2.5379 2.4878 -2.3153
C 1.0267 2.2790 -2.1175
C 0.6420 -1.5266 -1.1053
C 0.9880 -2.8690 -0.7905
C 1.7498 -3.2745 0.4365
C 0.6290 -3.9001 -1.6813
C -0.0197 -3.6182 -2.8829
C -0.3280 -2.3033 -3.2108
C -0.0117 -1.2723 -2.3261
Ni 3.4548 -0.0777 -0.0628
N 5.5548 -0.0777 -0.0628
C 6.2093 0.7294 0.8026
C 5.3992 1.6322 1.6548
C 7.6035 0.6506 0.9125
C 8.2923 -0.2886 0.1379
C 7.5947 -1.0922 -0.7680
C 6.2033 -0.9556 -0.8702
C 5.4076 -1.7324 -1.8719
H 0.3462 -1.4075 1.8886
H 1.2661 0.4197 3.2936
H -0.2829 -0.2071 3.7713
H -0.1720 2.6414 2.5811
H -0.4594 2.1401 4.1379
H -2.4571 2.6197 2.5391
H -2.5273 1.1230 3.5407
H -1.9083 1.2319 0.5285
H -3.3394 0.5748 1.3206
H -1.8069 -1.3244 0.7288
H -1.9059 -1.0875 2.4801
H -0.4736 1.7803 -0.7496
H 1.0534 2.2276 1.2125
H 0.6959 3.6965 0.2010
H 3.0208 1.7866 0.1822
H 3.1033 3.3644 0.9998
H 4.2389 3.3106 -1.2375
H 2.7955 4.3999 -1.2420
H 3.0158 1.4891 -2.3392
H 2.7519 3.0047 -3.2809
H 0.6069 1.7134 -2.9720
H 0.5738 3.3012 -2.2057
H 2.0668 -2.4186 1.0559
H 2.6780 -3.7945 0.1189
H 1.1373 -3.9755 1.0436
H 0.8674 -4.9316 -1.4515
H -0.2747 -4.4196 -3.5655
H -0.8169 -2.0817 -4.1519
H -0.2803 -0.2682 -2.6096
H 4.3309 1.3411 1.5105
H 5.6151 2.6909 1.3826
H 5.6237 1.4669 2.7248
H 8.1420 1.2748 1.6141
H 9.3653 -0.3929 0.2356
H 8.1310 -1.8072 -1.3797
H 6.0595 -2.4076 -2.4693
H 4.9451 -1.0081 -2.5774
H 4.5925 -2.3014 -1.3793
