42
 
P 1.2750 -0.0000 0.0000
O 0.4271 1.5034 0.0889
C -0.9684 1.3939 0.0551
C -1.4040 -0.0570 -0.0018
C -2.9359 -0.1270 -0.0055
C -0.7785 -0.6536 -1.3197
O 0.6224 -0.4090 -1.5088
O 0.6287 -0.5742 1.4573
C -0.7815 -0.7584 1.2662
Ni 3.7350 0.0003 -0.0005
C 5.8850 0.0006 -0.0009
N 6.5894 -1.0583 -0.1220
C 6.0380 -2.3918 -0.1955
C 5.2056 -2.6889 1.0524
C 8.0026 -0.7475 -0.1137
C 8.0333 0.7829 -0.2517
N 6.6866 1.1559 0.0899
C 6.2607 2.4952 0.4412
C 5.1724 3.0171 -0.4848
H -1.3399 1.9539 -0.8319
H -1.3689 1.8891 0.9668
H -3.3395 0.4257 -0.8833
H -3.3403 0.3603 0.9101
H -3.2843 -1.1763 -0.0433
H -1.2941 -0.1767 -2.1822
H -0.9812 -1.7438 -1.3681
H -1.2785 -0.3306 2.1652
H -1.0111 -1.8432 1.2381
H 6.8650 -3.1345 -0.2871
H 5.3966 -2.4801 -1.0975
H 5.8754 -2.6607 1.9438
H 4.8216 -3.7330 0.9728
H 4.3578 -1.9188 1.1483
H 8.5745 -1.2274 -0.9361
H 8.4046 -1.0621 0.8751
H 8.1776 1.0705 -1.3187
H 8.8190 1.2396 0.3850
H 7.1339 3.1853 0.4028
H 5.8804 2.4886 1.4854
H 5.5464 3.0609 -1.5276
H 4.8996 4.0476 -0.1627
H 4.2716 2.3610 -0.4364
