58
 
C 1.0240 -0.6530 -0.0550
N 0.2994 -0.5281 1.0119
C 0.4348 -1.2184 2.2756
C -0.7814 0.4130 0.8211
C -0.5478 0.9817 -0.5693
N 0.4757 0.1355 -1.1323
C 0.2346 -0.3848 -2.4842
Ni 2.7802 -1.8697 -0.2955
C 4.5364 -3.0865 -0.5360
N 4.5484 -4.4362 -0.5150
C 3.3635 -5.2763 -0.3509
C 2.3261 -4.9864 -1.4418
C 2.8438 -5.2961 -2.8521
C 1.7597 -4.9972 -3.8838
C 5.8462 -4.7855 -0.6944
C 6.6153 -3.6458 -0.7921
C 8.0050 -3.7156 -0.9792
C 8.6014 -4.9827 -1.0772
C 7.8183 -6.1492 -0.9773
C 6.4247 -6.0629 -0.7805
N 5.8299 -2.5454 -0.6868
C 6.3860 -1.1103 -0.6864
C 5.4556 -0.0074 -1.2384
C 4.3112 -0.4993 -1.7292
C 3.3726 0.1217 -2.3721
C 3.4540 1.4624 -2.5825
C 4.5808 2.1423 -2.0800
C 5.6226 1.4075 -1.4106
H 1.1847 -2.0301 2.2387
H -0.5537 -1.6615 2.5458
H 0.6714 -0.4849 3.0776
H -0.7726 1.2320 1.5729
H -1.7468 -0.1385 0.8750
H -0.1190 2.0016 -0.5116
H -1.5006 1.0109 -1.1496
H -0.6413 0.0948 -2.9565
H 0.1099 -1.4897 -2.4987
H 0.9275 -0.0132 -3.2414
H 2.9002 -5.0429 0.6319
H 3.6325 -6.3526 -0.3632
H 2.0277 -3.9158 -1.3803
H 1.4278 -5.6095 -1.2440
H 3.1294 -6.3686 -2.9224
H 3.7379 -4.6754 -3.0802
H 0.8619 -5.6216 -3.6866
H 2.1326 -5.2211 -4.9048
H 1.4716 -3.9249 -3.8347
H 8.6237 -2.8334 -1.0602
H 9.6717 -5.0617 -1.2325
H 8.3005 -7.1168 -1.0541
H 5.8403 -6.9692 -0.7068
H 7.2629 -1.0793 -1.3748
H 6.7971 -0.8649 0.3183
H 4.0723 -1.4195 -1.7236
H 2.6520 -0.5734 -2.7176
H 2.6506 1.9100 -3.1468
H 4.6287 3.2064 -2.2549
H 6.5087 1.9418 -1.0840
