50
 
P -1.2154 -0.0398 0.9846
N -1.1304 -1.2691 -0.3035
C -2.3268 -1.1282 -1.1668
C 0.0268 -1.4897 -1.1773
C 1.3439 -1.3227 -0.5135
N 1.9820 0.0821 -0.3928
C 1.2577 1.4329 -0.2543
C -0.0995 1.6479 -0.9290
N -1.3379 1.3667 -0.0937
C -1.7619 2.4962 0.7398
N 0.1360 -0.2886 2.2575
C -0.0836 -1.5030 3.0275
C 1.6193 0.1273 2.1469
C 2.6784 -0.0226 0.9114
Ni -3.1232 0.1436 2.4991
N -4.7283 0.2263 3.8069
C -5.0306 -0.8449 4.6205
C -6.1281 -0.7960 5.5171
C -6.5406 -1.9745 6.3624
C -6.8659 0.3851 5.6074
C -6.5319 1.4708 4.8007
C -5.4751 1.3619 3.8822
H -3.2777 -0.9922 -0.6016
H -2.4443 -2.0205 -1.8165
H -2.2137 -0.2453 -1.8354
H -0.0026 -0.9351 -2.1134
H -0.0495 -2.5733 -1.4339
H 2.0134 -2.1973 -0.3201
H 1.0474 -1.8438 0.4126
H 1.9962 2.2767 -0.1916
H 0.9657 1.7808 0.7413
H -0.0788 1.1000 -1.8698
H -0.1098 2.7124 -1.2530
H -1.8349 3.4220 0.1255
H -1.0393 2.6724 1.5654
H -2.7692 2.2572 1.1988
H -1.0367 -1.3642 3.5612
H 0.7298 -1.6121 3.7707
H -0.0865 -2.3836 2.3511
H 1.1536 -0.3054 1.4568
H 2.2207 -0.4343 2.8785
H 3.2927 -0.9731 0.9156
H 3.5274 0.6994 0.9731
H -4.4289 -1.7442 4.5742
H -5.8701 -2.8446 6.2114
H -7.5695 -2.2814 6.0684
H -6.5583 -1.7119 7.4432
H -7.6993 0.4595 6.3011
H -7.0973 2.3904 4.8862
H -5.2383 2.1920 3.2388
