36
 
C 0.9164 -0.6488 -0.0015
N -0.3261 -1.0624 -0.3360
C -0.7045 -2.4197 -0.6967
C -1.1390 0.0076 -0.2037
C -0.3701 1.0784 0.2167
N 0.9047 0.6531 0.3410
C 2.0753 1.4353 0.7027
Ni 2.6606 -1.8798 -0.0117
P 4.6632 -3.2945 -0.0239
N 5.7301 -3.0517 -1.4382
C 6.3078 -1.7213 -1.6851
C 6.7540 -4.1023 -1.4330
O 5.8807 -2.8102 1.0781
C 5.4425 -2.8246 2.3989
O 4.1361 -4.8828 -0.4118
C 3.2128 -5.3175 0.5774
H 0.1939 -3.0797 -0.6838
H -1.1751 -2.4409 -1.7001
H -1.4297 -2.7972 0.0574
H -2.2056 0.0099 -0.3880
H -0.7118 2.0880 0.4075
H 1.7948 2.4947 0.8829
H 2.7970 1.4048 -0.1425
H 2.5585 1.0113 1.6066
H 5.5369 -0.9308 -1.6166
H 6.7221 -1.7122 -2.7160
H 7.1850 -1.5137 -1.0560
H 6.2750 -5.1078 -1.3881
H 7.4315 -4.0108 -0.5545
H 7.3747 -4.0730 -2.3505
H 6.3650 -2.8208 3.0259
H 4.8702 -3.7409 2.6625
H 4.9148 -1.8724 2.5829
H 2.4797 -6.0159 0.1321
H 2.6281 -4.5019 1.0671
H 3.7042 -5.9442 1.3377
