73
 
C 0.9010 -0.6430 -0.0020
N 0.6567 0.2299 -1.0074
C 1.5034 0.4995 -2.1648
C 2.6964 -0.4858 -2.1402
C 0.6904 0.2900 -3.4499
C 1.9672 1.9820 -2.0916
C -0.5037 0.8537 -0.7241
C -0.9932 0.3319 0.4300
N -0.1263 -0.6050 0.8825
C -0.2652 -1.3834 2.1028
C -1.6166 -1.0946 2.8141
C -0.2454 -2.8890 1.7396
C 0.9133 -0.9152 2.9776
Ni 2.6584 -1.8814 -0.0135
C 4.4159 -3.1199 -0.0250
N 4.3770 -4.4821 -0.0176
C 3.1547 -5.2850 -0.0249
C 3.0543 -6.2232 1.1847
C 3.0782 -5.4985 2.5344
C 2.9829 -6.5219 3.6649
C 5.6765 -4.8905 -0.0347
C 6.4785 -3.7902 -0.0278
C 7.8795 -3.8757 -0.0302
C 8.4647 -5.1430 -0.0430
C 7.6522 -6.2918 -0.0567
C 6.2424 -6.1792 -0.0568
N 5.7258 -2.6771 -0.0164
C 6.3866 -1.3622 0.0343
C 5.4644 -0.1773 0.0416
C 4.4420 -0.1841 1.2068
C 5.1552 0.0071 2.5515
H 2.3948 -1.5450 -2.2115
H 3.1392 -0.3680 -1.1782
H 3.4237 -0.2239 -2.9361
H 0.3403 -0.7611 -3.5022
H 1.3029 0.5234 -4.3448
H -0.2047 0.9510 -3.4661
H 2.5307 2.1870 -1.1554
H 1.0926 2.6749 -2.0996
H 2.6028 2.2576 -2.9583
H -0.9678 1.6351 -1.3119
H -1.9181 0.6385 0.8996
H -2.4771 -1.3343 2.1458
H -1.6910 -0.0284 3.1116
H -1.7282 -1.7152 3.7288
H -1.0823 -3.1247 1.0374
H -0.3620 -3.5350 2.6333
H 0.6951 -3.1642 1.2197
H 0.6370 -0.6319 4.0130
H 1.8554 -1.4597 2.7520
H 1.1812 0.1115 2.6592
H 3.1312 -5.8939 -0.9533
H 2.2696 -4.6123 -0.0332
H 3.8826 -6.9538 1.1636
H 2.1044 -6.7927 1.0953
H 2.2243 -4.7906 2.6035
H 4.0256 -4.9275 2.6486
H 2.0389 -7.1018 3.5778
H 3.0007 -6.0117 4.6495
H 3.8415 -7.2268 3.6145
H 8.5105 -2.9953 -0.0245
H 9.5454 -5.2297 -0.0452
H 8.1266 -7.2644 -0.0684
H 5.6489 -7.0772 -0.0761
H 7.0559 -1.2635 -0.8521
H 7.0338 -1.3199 0.9354
H 5.0526 -0.1711 -0.9641
H 6.0761 0.7528 0.0770
H 3.9083 -1.1178 1.3804
H 3.7445 0.6605 1.0470
H 5.8095 -0.8647 2.7702
H 4.4006 0.0599 3.3632
H 5.7713 0.9316 2.5736
