56
 
P -1.3500 0.0010 0.7980
N -1.1670 -1.1810 -0.5231
C -2.3614 -1.1594 -1.3661
C 0.0420 -1.4233 -1.3169
C 1.2728 -1.2838 -0.5147
N 1.7818 0.1104 -0.2781
C 1.1523 1.4824 -0.3070
C -0.1862 1.6915 -1.0241
N -1.4245 1.4383 -0.2145
C -1.7742 2.5446 0.6800
N -0.0040 -0.6406 1.9027
C -0.4071 -1.5730 2.9667
C 1.4080 -0.1005 2.1197
C 2.4710 -0.0054 0.9746
Ni -3.3226 0.0026 2.2679
P -5.2952 0.0042 3.7377
N -5.1918 -0.6073 5.3986
C -4.1486 0.0610 6.2046
C -6.4516 -0.7801 6.0870
O -5.6972 1.6245 4.0824
C -6.1176 2.2242 2.8783
O -6.1505 -1.3379 3.1172
C -6.6338 -1.0128 1.8334
H -3.2809 -1.0957 -0.7430
H -2.4285 -2.0934 -1.9609
H -2.3231 -0.2825 -2.0451
H 0.1056 -0.8887 -2.2768
H 0.0005 -2.5080 -1.5739
H 2.1048 -1.8918 -0.9298
H 1.0856 -1.9047 0.3909
H 1.9259 2.1431 -0.7652
H 1.0508 1.9835 0.6770
H -0.1774 1.1650 -1.9892
H -0.1953 2.7632 -1.3256
H -1.8589 3.4936 0.1103
H -1.0187 2.6734 1.4870
H -2.7676 2.3204 1.1523
H -1.3887 -1.3107 3.4136
H 0.3169 -1.5685 3.8220
H -0.3702 -2.6007 2.5580
H 1.3002 0.9131 2.5154
H 1.9775 -0.8048 2.7745
H 3.1909 -0.8683 0.9183
H 3.1805 0.8411 1.1471
H -3.2097 0.2162 5.6225
H -3.8637 -0.5876 7.0644
H -4.4951 1.0358 6.6063
H -7.0920 -1.4571 5.4885
H -6.9344 0.2008 6.2470
H -6.2574 -1.2888 7.0577
H -6.5610 3.2148 3.1101
H -6.9368 1.6677 2.3739
H -5.2542 2.3827 2.1954
H -6.8684 -1.9572 1.3012
H -5.8782 -0.4896 1.2036
H -7.5861 -0.4409 1.8899
