48
 
C 0.9010 -0.6430 -0.0020
N -0.3412 -1.1234 0.0160
C -0.6754 -2.5420 0.0430
C 0.6345 -3.4032 0.0186
C -1.5527 -2.8345 1.2732
C -1.1590 -0.0449 -0.0017
C -0.3694 1.0907 -0.0269
N 0.9189 0.6949 -0.0221
C 2.1226 1.5112 -0.0300
C 2.1251 2.4189 1.2104
C 3.3462 0.5742 -0.0363
Ni 2.6584 -1.8814 -0.0135
N 4.3750 -3.0911 -0.0247
C 4.9147 -2.4049 -1.2093
C 4.0815 -4.5085 -0.2214
C 5.4758 -2.7635 0.8971
C 6.3702 -3.7618 1.3765
C 7.3256 -3.4759 2.3584
C 7.4446 -2.1894 2.8756
C 6.6444 -1.1749 2.3753
C 5.6881 -1.4589 1.4059
H -1.2788 -2.7712 -0.8632
H 1.2928 -3.2151 0.8791
H 1.2341 -3.1906 -0.8792
H 0.3484 -4.4737 0.0046
H -1.0104 -2.6061 2.2145
H -1.8789 -3.8944 1.2803
H -2.4743 -2.2076 1.2506
H -2.2408 -0.0701 0.0062
H -0.7056 2.1202 -0.0431
H 2.1302 2.1479 -0.9426
H 2.0983 1.8052 2.1365
H 1.2308 3.0807 1.2102
H 3.0264 3.0656 1.2268
H 3.2642 -0.0736 0.8372
H 4.2733 1.1867 -0.0400
H 3.3389 -0.1008 -0.8926
H 4.1463 -2.4553 -2.0138
H 5.8558 -2.8475 -1.5999
H 5.0783 -1.3170 -1.0678
H 3.0159 -4.6414 -0.4719
H 4.2801 -5.1296 0.6720
H 4.6739 -4.9126 -1.0778
H 6.3417 -4.7802 1.0233
H 7.9661 -4.2625 2.7309
H 8.1625 -1.9727 3.6544
H 6.7474 -0.1619 2.7468
H 5.1385 -0.6351 1.0817
