49
 
C 1.0240 -0.6530 -0.0550
N 1.0190 0.6237 -0.1198
C 2.1985 1.4445 -0.2731
C 3.1333 1.1554 0.8977
C 2.9145 1.1792 -1.6036
C -0.3192 1.1477 0.0602
C -1.2110 -0.0945 -0.0588
N -0.2754 -1.1674 0.1413
C -0.6368 -2.5383 0.4514
C -0.0749 -3.4722 -0.6098
C -0.1352 -2.9354 1.8504
Ni 2.7802 -1.8697 -0.2955
N 4.4956 -3.0582 -0.5304
C 4.7238 -3.8263 -1.6665
N 3.8224 -3.8046 -2.8122
C 2.6496 -2.9541 -2.8833
C 3.9917 -4.6327 -4.0092
C 5.8782 -4.6519 -1.6788
C 6.7273 -4.7019 -0.5824
C 6.4640 -3.9218 0.5317
C 5.3446 -3.0901 0.5344
H 1.8864 2.5167 -0.2670
H 3.4427 0.0456 0.8717
H 2.5779 1.3848 1.8365
H 3.9976 1.8546 0.8449
H 3.3146 0.1452 -1.6326
H 3.7651 1.8872 -1.7123
H 2.2279 1.3274 -2.4641
H -0.6155 1.9159 -0.6857
H -0.3671 1.5695 1.0889
H -1.5862 -0.1990 -1.1018
H -2.0560 -0.0651 0.6612
H -1.7479 -2.6280 0.4720
H 1.0420 -3.3739 -0.6530
H -0.5030 -3.1947 -1.5947
H -0.3702 -4.5191 -0.3768
H 0.9716 -2.8831 1.9127
H -0.4548 -3.9747 2.0881
H -0.5703 -2.2692 2.6279
H 2.5805 -2.2133 -2.1270
H 1.7395 -3.5774 -2.8478
H 2.6630 -2.3774 -3.8334
H 4.8712 -5.2869 -4.0370
H 4.0749 -3.9809 -4.9080
H 3.1044 -5.2868 -4.1358
H 6.1623 -5.2837 -2.4985
H 7.5902 -5.3577 -0.6026
H 7.1201 -3.9751 1.3901
H 5.1238 -2.4979 1.4114
