33
 
C -0.2627 -1.1551 -0.0098
N 0.7129 -0.3165 0.5570
C 1.9642 -0.6676 1.3204
C 0.3094 0.9738 0.2300
Cl 1.0306 2.5822 0.5670
C -0.8532 0.9041 -0.4933
Cl -1.7975 2.2720 -1.1186
N -1.2003 -0.3828 -0.6465
C -2.4098 -0.8041 -1.3479
Ni -0.5286 -3.3785 -0.0070
N -0.8180 -5.4429 -0.0211
C 0.2003 -6.3521 0.1249
C 1.6167 -5.9054 0.2326
C -0.0649 -7.7391 0.1273
C -1.3721 -8.1665 0.3085
C -2.3953 -7.2736 0.0612
C -2.0970 -5.9219 -0.1822
C -3.2040 -5.0011 -0.4990
H 2.1058 -1.7623 1.4506
H 2.0097 -0.2240 2.3451
H 2.9062 -0.3093 0.8211
H -2.9749 0.0761 -1.7271
H -3.0924 -1.3358 -0.6587
H -2.1596 -1.4298 -2.2180
H 1.6501 -4.8037 0.2817
H 2.2332 -6.2690 -0.6144
H 2.0475 -6.3076 1.1767
H 0.7249 -8.4812 0.0508
H -1.5910 -9.1892 0.5973
H -3.4183 -7.6342 0.0444
H -4.1719 -5.5432 -0.5825
H -2.9712 -4.5473 -1.4787
H -3.2791 -4.2305 0.2829
