49
 
C 2.3270 0.0340 0.0000
N 1.5595 1.1375 -0.0129
C 2.1120 2.5013 -0.0176
C 3.6798 2.4540 -0.0270
C 1.6067 3.2989 -1.2326
C 0.2805 0.6683 -0.0060
C 0.3038 -0.7135 -0.0064
C -0.8860 -1.4670 0.0051
C -2.1095 -0.7828 0.0057
C -2.1385 0.6226 0.0010
C -0.9411 1.3661 0.0011
N 1.5897 -1.1494 -0.0041
C 2.0046 -2.6153 -0.0163
C 2.5467 -3.0989 1.3279
C 1.7246 -2.8159 2.4141
C 2.1521 -3.0148 3.7154
C 3.3880 -3.5992 3.9710
C 4.1752 -4.0507 2.9050
C 3.7716 -3.7940 1.5712
Ni 4.4769 0.0580 0.0014
N 6.5767 0.0815 0.0028
C 7.1809 -1.1354 0.1174
C 8.5732 -1.2374 0.2152
Cl 9.3469 -2.8027 0.3984
C 9.3441 -0.0772 0.1755
C 8.7182 1.1602 0.0100
C 7.3168 1.2247 -0.0712
H 1.7631 3.0214 0.9019
H 4.0735 1.9423 -0.9210
H 4.0815 1.9255 0.8492
H 4.0689 3.4914 -0.0091
H 1.9284 2.8234 -2.1813
H 1.9973 4.3381 -1.1953
H 0.5032 3.3822 -1.2452
H -0.9049 -2.5467 0.0188
H -3.0389 -1.3422 0.0126
H -3.0966 1.1292 0.0007
H -1.0010 2.4419 0.0090
H 2.6688 -2.8504 -0.8732
H 1.1063 -3.2527 -0.1711
H 0.7484 -2.3952 2.2408
H 1.5117 -2.6893 4.5188
H 3.7117 -3.7131 4.9991
H 5.1039 -4.5688 3.1352
H 4.4232 -4.1323 0.7698
H 6.5698 -2.0274 0.1664
H 10.4234 -0.1366 0.2669
H 9.3210 2.0572 -0.0456
H 6.8321 2.1818 -0.1982
