31
 
C -0.2479 -1.1654 0.0498
N -0.9854 -0.1295 0.6766
C -2.1892 -0.2017 1.5871
C -0.3188 1.0451 0.3278
Cl -0.6052 2.7740 0.7400
C 0.7473 0.7256 -0.4730
Cl 1.8984 1.8577 -1.2139
N 0.7981 -0.6073 -0.6281
C 1.8052 -1.2757 -1.4453
Ni -0.5064 -3.4302 -0.0148
N -0.7701 -5.5125 -0.0743
C -1.7927 -6.0970 -0.7808
C -2.1195 -7.4738 -0.6549
O -3.2030 -8.0261 -1.2690
C -4.0639 -7.2935 -2.0605
C -1.3091 -8.2754 0.1324
C -0.1865 -7.7169 0.7403
C 0.0379 -6.3252 0.6697
H -2.5501 -1.2387 1.7604
H -3.0739 0.3701 1.2118
H -2.0140 0.2181 2.6177
H 2.5077 -0.5376 -1.8898
H 1.3322 -1.8118 -2.2886
H 2.4031 -1.9625 -0.8276
H -2.3337 -5.5148 -1.4998
H -4.9101 -7.9041 -2.4273
H -3.4991 -6.9082 -2.9306
H -4.4722 -6.4369 -1.4813
H -1.5467 -9.3262 0.2599
H 0.4811 -8.3585 1.2951
H 0.8016 -5.8952 1.2952
