63
 
C 2.3270 0.0340 0.0000
N 1.5589 1.1559 -0.0084
C 2.1005 2.5106 0.0065
C 1.5978 3.3330 1.1940
C 1.9684 2.7276 2.5469
C 1.4132 3.6079 3.6629
C 0.2636 0.7340 -0.0842
C 0.2531 -0.6295 -0.1549
C -0.9708 -1.3509 -0.2046
C -2.1775 -0.6551 -0.1247
C -2.1720 0.7437 -0.0692
C -0.9526 1.4586 -0.0747
N 1.5350 -1.1116 -0.0912
C 1.8436 -2.5864 0.1066
C 1.5190 -2.9220 1.5803
C 0.3087 -2.3856 1.9328
C 0.4602 -1.4740 2.9394
C 1.0763 -1.9293 4.0928
C 1.8582 -3.1189 3.9957
C 2.2177 -3.5628 2.6643
Ni 4.4769 0.0580 0.0014
C 6.6267 0.0821 0.0028
N 7.3283 0.0135 1.1505
C 6.8185 -0.1142 2.4986
C 8.6246 0.0675 0.8280
C 8.7349 0.2317 -0.5133
N 7.5159 0.2766 -1.1116
C 7.5378 0.4822 -2.6276
C 8.7839 0.7783 -3.3349
C 8.9107 0.7958 -4.7378
C 7.8135 0.5542 -5.5347
C 6.5692 0.3823 -4.9273
C 6.4168 0.3632 -3.5030
H 1.7923 3.0218 -0.9317
H 3.2199 2.4528 0.0270
H 0.5008 3.4410 1.1456
H 2.0334 4.3513 1.1143
H 3.0739 2.6580 2.6377
H 1.5360 1.7078 2.6447
H 1.8339 4.6335 3.5842
H 1.6774 3.1833 4.6520
H 0.3055 3.6689 3.5837
H -1.0188 -2.4328 -0.2339
H -3.1145 -1.2052 -0.0949
H -3.1234 1.2609 -0.0127
H -1.0048 2.5313 -0.0342
H 2.8408 -2.8917 -0.2689
H 1.1135 -3.1744 -0.4995
H -0.1445 -3.2290 2.4713
H 0.0785 -0.4742 2.7846
H 1.0118 -1.3129 4.9746
H 2.3320 -3.4942 4.8910
H 3.0722 -4.2204 2.5554
H 5.7060 -0.1203 2.4806
H 7.1860 0.7505 3.0928
H 7.2125 -1.0493 2.9544
H 9.4588 0.0024 1.5116
H 9.6968 0.3055 -0.9834
H 9.7283 0.9852 -2.8644
H 9.8749 0.9728 -5.2206
H 7.9344 0.5170 -6.6211
H 5.7270 0.2369 -5.5929
H 5.4240 0.2129 -3.1237
