60
 
C 2.3530 0.1453 -0.0344
N 1.5052 1.2027 0.0343
C 1.9608 2.5948 0.0386
C 2.8358 2.8131 1.2374
C 2.7555 2.8623 -1.2551
C 0.2521 0.7095 -0.0125
C 0.3338 -0.6563 -0.0897
C -0.8427 -1.4389 -0.0545
C -2.0938 -0.7865 -0.0052
C -2.1651 0.6175 0.0058
C -0.9885 1.3867 0.0100
N 1.6499 -1.0413 -0.1762
C 2.0782 -2.4663 -0.1581
C 3.3392 -2.7052 0.6288
C 3.1689 -3.3541 1.8521
C 4.1487 -3.2742 2.8143
C 5.4101 -2.8274 2.4828
C 5.6799 -2.4447 1.1749
C 4.6262 -2.2701 0.2551
Ni 4.4919 0.5560 0.1048
P 6.8742 1.1271 0.2843
C 8.1387 0.0017 -0.2558
C 7.3874 2.4607 -1.0177
C 7.0778 1.8954 2.0319
C 6.6790 1.0711 3.3109
C 8.5464 2.2815 2.2475
C 6.2307 3.1507 2.0377
H 1.1230 3.3161 0.0878
H 3.5519 2.0628 1.1700
H 2.3216 2.6310 2.1929
H 3.3420 3.7968 1.2147
H 3.5995 2.1443 -1.3574
H 3.1840 3.8869 -1.2705
H 2.0779 2.7480 -2.1273
H -0.8245 -2.5182 -0.0625
H -3.0157 -1.3603 0.0142
H -3.1349 1.1070 0.0235
H -1.0869 2.4644 0.0364
H 2.0952 -2.9050 -1.1602
H 1.2716 -3.0010 0.4081
H 2.2407 -3.8444 2.0975
H 3.9070 -3.5667 3.8175
H 6.1777 -2.8090 3.2402
H 6.6941 -2.2438 0.9530
H 4.8067 -1.8065 -0.7145
H 7.8851 -0.2949 -1.2997
H 7.9602 -0.8553 0.3787
H 9.1804 0.3087 -0.1108
H 7.2955 2.1319 -2.0721
H 8.4507 2.8052 -0.8556
H 6.8865 3.4624 -1.0238
H 7.2843 0.1541 3.4725
H 5.5955 0.8502 3.4050
H 6.8850 1.6944 4.2220
H 9.1696 1.3625 2.3010
H 8.6634 2.8289 3.2118
H 8.9194 2.9336 1.4378
H 5.2206 2.8151 1.9353
H 6.4737 3.8185 1.1898
H 6.2738 3.7058 2.9926
