27
 
C 1.0240 -0.6530 -0.0550
N 1.0432 0.6226 -0.0822
C 2.2455 1.4065 -0.2132
C -0.2796 1.1713 0.1158
C -1.1922 -0.0577 0.0082
N -0.2722 -1.1590 0.1672
C -0.6247 -2.5189 0.4199
C 0.1923 -3.5780 -0.0195
C -0.1725 -4.9046 0.2503
C -1.3282 -5.1859 0.9857
C -2.1317 -4.1438 1.4456
C -1.7926 -2.8205 1.1544
Ni 2.7802 -1.8697 -0.2955
C 4.5364 -3.0865 -0.5360
O 5.5314 -3.7758 -0.6722
H 3.1387 0.7352 -0.3162
H 2.3620 2.0471 0.6891
H 2.1570 2.0677 -1.1015
H -0.5614 1.9421 -0.6334
H -0.3193 1.5948 1.1434
H -1.5766 -0.1362 -1.0368
H -2.0450 -0.0128 0.7120
H 1.0815 -3.3915 -0.5946
H 0.4407 -5.7197 -0.1091
H -1.6024 -6.2108 1.2029
H -3.0177 -4.3610 2.0311
H -2.4328 -2.0387 1.5385
