37
 
P 0.9147 -0.0044 -0.0520
O -0.2348 1.2426 -0.0645
C 0.3011 2.2251 0.8352
O 0.4259 -0.8088 -1.4739
C 1.0165 -2.0909 -1.4748
O 0.5746 -0.3596 1.5893
C 1.1671 -1.5652 1.9599
Ni 3.3747 -0.0044 -0.0520
N 5.4747 -0.0044 -0.0520
C 6.1001 1.1952 -0.0506
C 5.2595 2.4243 -0.0563
C 7.5004 1.2583 -0.0466
C 8.2430 0.0692 -0.0452
C 9.7440 0.1027 -0.0406
C 7.5680 -1.1595 -0.0488
C 6.1635 -1.1787 -0.0528
C 5.4093 -2.4726 -0.0575
H -0.0001 3.2534 0.5590
H 1.4270 2.2807 0.8881
H -0.0658 2.0227 1.8648
H 0.5575 -2.6976 -2.2820
H 0.8095 -2.6834 -0.5643
H 2.1085 -2.0217 -1.6628
H 1.0186 -1.6791 3.0534
H 2.2604 -1.5517 1.7644
H 0.6344 -2.4256 1.5168
H 4.1645 2.1217 -0.0737
H 5.5186 3.0304 -0.9521
H 5.5040 3.0271 0.8466
H 8.0038 2.2176 -0.0455
H 10.1271 1.1456 -0.0396
H 10.1347 -0.4112 -0.9441
H 10.1284 -0.4106 0.8659
H 8.1310 -2.0861 -0.0486
H 6.1030 -3.3425 -0.0563
H 4.7719 -2.5306 -0.9634
H 4.7611 -2.5319 0.8408
