23
 
N -1.3864 -0.0928 -0.0486
C -0.8191 0.1673 1.1963
C 0.5233 0.5367 1.3065
F 1.0312 1.0503 2.4318
C 1.3247 0.3580 0.2498
C 0.8101 -0.1910 -0.9126
C -0.5723 -0.2631 -1.1000
Ni -3.4702 -0.1994 -0.2621
N -5.5516 -0.3113 -0.5197
C -6.4158 -0.3384 0.5721
C -7.7543 -0.7048 0.4226
C -8.2797 -0.7603 -0.8068
F -9.5598 -1.1163 -0.9565
C -7.4844 -0.4401 -1.8959
C -6.0932 -0.3638 -1.7518
H -1.3983 0.1295 2.0773
H 2.3335 0.6260 0.3302
H 1.4675 -0.5237 -1.6591
H -0.9801 -0.4778 -2.0480
H -6.0696 -0.1004 1.5390
H -8.3671 -0.9281 1.2420
H -7.9347 -0.2815 -2.8304
H -5.4676 -0.3379 -2.6018
