80
 
N -0.6590 -1.2280 -0.0510
C 0.0728 -0.5713 -1.0740
C 0.2643 -1.0088 -2.5333
C 0.7452 0.6339 -0.8097
C 0.6749 1.2187 0.4336
C -0.0874 0.6150 1.4222
C -0.7301 -0.6145 1.1745
Ni -1.5756 -3.1044 -0.2726
C -2.5141 -5.0254 -0.4994
N -1.8183 -6.2090 -0.2110
C -0.4322 -6.5713 0.2578
C 0.4421 -5.6598 0.9371
C 0.1538 -4.2596 1.3046
C 0.4112 -4.0844 2.8350
C 1.0372 -3.4104 0.3122
C 1.7650 -6.0219 1.3047
C 2.2688 -7.2507 1.1256
C 1.5175 -8.1585 0.4679
C 0.2212 -7.8663 -0.0446
C -0.2507 -8.9923 -0.9782
C 0.7386 -9.1534 -2.1566
C -0.3704 -10.3159 -0.2065
C -2.7065 -7.1536 -0.5264
C -3.7868 -6.6102 -1.1261
N -3.7448 -5.2585 -1.0864
C -4.8460 -4.2732 -1.3546
C -6.2795 -4.5889 -1.2478
C -6.9366 -5.9509 -1.1100
C -6.8025 -6.7921 -2.3986
C -6.5479 -6.5969 0.2162
C -7.2393 -3.5471 -1.2017
C -6.8882 -2.2315 -1.2597
C -5.5945 -1.9118 -1.4994
C -4.5724 -2.8877 -1.6084
C -3.2689 -2.3808 -2.1682
C -3.3843 -2.2970 -3.6960
C -2.9479 -0.9798 -1.6522
H -0.2426 -1.9398 -2.8488
H 1.3417 -1.0638 -2.8077
H -0.1398 -0.1905 -3.1882
H 1.3331 1.1290 -1.5802
H 1.2062 2.1481 0.6144
H -0.1658 1.1098 2.3800
H -1.3165 -1.0550 1.9655
H -0.9053 -4.0475 1.2724
H 1.3723 -4.4567 3.2339
H -0.3472 -4.6890 3.3814
H 0.3470 -3.0347 3.1679
H 2.0709 -3.7841 0.1918
H 1.1665 -2.3955 0.6744
H 0.6675 -3.3596 -0.7521
H 2.4620 -5.3303 1.7556
H 3.2746 -7.4743 1.4599
H 2.0285 -9.0930 0.3130
H -1.1833 -8.7952 -1.5029
H 1.7804 -9.3302 -1.8244
H 0.7458 -8.2400 -2.7906
H 0.4573 -10.0216 -2.7851
H 0.6246 -10.6727 0.1249
H -0.7837 -11.1136 -0.8541
H -1.0149 -10.1841 0.6877
H -2.6284 -8.2063 -0.3372
H -4.5353 -7.2774 -1.4587
H -8.0453 -5.8563 -1.0040
H -5.8099 -6.7757 -2.8686
H -7.4277 -6.3698 -3.2122
H -7.1267 -7.8362 -2.2004
H -5.5096 -6.8263 0.3505
H -7.0906 -7.5473 0.3621
H -6.7607 -5.8831 1.0379
H -8.2982 -3.7332 -1.0835
H -7.6272 -1.4430 -1.1757
H -5.4333 -0.8561 -1.6092
H -2.4789 -3.1081 -2.0876
H -4.4220 -2.0603 -4.0084
H -3.0216 -3.2359 -4.1716
H -2.7290 -1.5020 -4.1015
H -3.5865 -0.1862 -2.0653
H -2.0395 -0.6830 -2.1156
H -2.9403 -0.9107 -0.5469
