24
 
N -1.3900 -0.1120 -0.0540
C -0.8022 1.1122 -0.1001
C 0.5883 1.2271 -0.0923
C 1.3739 0.0679 -0.0441
C 2.8704 0.1565 -0.1225
C 0.7434 -1.1829 0.0414
C -0.6549 -1.2518 0.0350
Ni -3.4756 -0.2017 -0.2821
O -5.5116 -0.2893 -0.5047
C -6.2204 -1.3895 -0.5537
C -7.5488 -1.0406 -0.7043
C -7.5864 0.3412 -0.7374
C -6.2802 0.7653 -0.6113
H -1.4193 1.9975 -0.1784
H 1.0439 2.2076 -0.1558
H 3.2114 1.2101 -0.2179
H 3.2159 -0.3924 -1.0254
H 3.3381 -0.2916 0.7773
H 1.3280 -2.0937 0.0801
H -1.1532 -2.2118 0.0589
H -5.8168 -2.3908 -0.4892
H -8.3933 -1.7122 -0.7798
H -8.4633 0.9665 -0.8404
H -5.9297 1.7886 -0.5932
