26
 
N -0.6590 -1.2280 -0.0510
C -1.4437 -0.1372 -0.0099
C -2.9115 -0.3690 -0.1281
C -0.8505 1.1369 0.0405
C 0.5500 1.2345 0.0734
C 1.3310 0.0763 0.0441
C 0.6968 -1.1609 -0.0355
Ni -1.5756 -3.1044 -0.2726
O -2.4704 -4.9360 -0.4889
C -1.7250 -5.5841 -1.4614
C -1.9787 -4.8059 -2.7679
C -0.2609 -5.6079 -1.1160
H -3.1029 -1.4902 -0.1705
H -3.2703 0.1185 -1.0635
H -3.4355 0.0783 0.7383
H -1.4510 2.0366 0.0323
H 1.0349 2.2018 0.1073
H 2.4127 0.1321 0.0669
H 1.2761 -2.0748 -0.0757
H -2.1247 -6.6131 -1.6015
H -1.6030 -3.7619 -2.6815
H -3.0721 -4.7446 -2.9780
H -1.4926 -5.2908 -3.6388
H 0.0872 -4.5664 -0.9261
H 0.2877 -6.0699 -1.9682
H -0.1205 -6.2434 -0.2196
