30
 
N -0.6590 -1.2280 -0.0510
C -1.4256 -0.1255 -0.1471
C -2.8806 -0.3348 -0.3977
C -0.8223 1.1425 -0.0846
C 0.5695 1.2267 0.0750
C 1.3324 0.0601 0.1707
C 0.6892 -1.1736 0.1003
Ni -1.5756 -3.1044 -0.2726
N -2.4923 -4.9807 -0.4941
C -1.7152 -6.0722 -0.2884
C -2.2405 -7.3637 -0.4596
O -1.5222 -8.4843 -0.1879
C -0.2637 -8.5002 0.3821
C -3.5541 -7.4874 -0.9260
C -4.3303 -6.3455 -1.1515
C -3.7875 -5.0836 -0.8880
H -3.0883 -1.4468 -0.4663
H -3.1486 0.1452 -1.3640
H -3.4727 0.1278 0.4176
H -1.4073 2.0471 -0.1839
H 1.0624 2.1900 0.1096
H 2.4088 0.1067 0.2832
H 1.2575 -2.0936 0.1538
H -0.7004 -5.9153 0.0503
H 0.0696 -9.5495 0.5112
H -0.2864 -8.0140 1.3834
H 0.4597 -7.9735 -0.2745
H -3.9745 -8.4682 -1.1098
H -5.3386 -6.4388 -1.5338
H -4.3642 -4.1886 -1.0805
