32
 
N -0.6790 1.1930 0.0010
C -1.3342 0.0973 0.4663
F -2.6216 0.2127 0.8745
C -0.7105 -1.1529 0.4474
C 0.6105 -1.2477 0.0036
F 1.2428 -2.4471 0.0045
C 1.2772 -0.1027 -0.4415
C 0.5960 1.1191 -0.4638
F 1.2262 2.2459 -0.8758
Ni -1.6914 3.0329 0.0055
P -2.8773 5.1881 0.0107
N -2.6875 6.2630 1.4170
C -1.2651 6.6316 1.6325
C -3.5412 7.4385 1.3848
O -2.1490 6.2930 -1.0706
C -2.3206 5.8464 -2.3888
O -4.4171 4.6814 0.5360
C -5.0126 3.9564 -0.5203
H -1.2446 -2.0369 0.7721
H 2.3081 -0.1627 -0.7657
H -0.5861 5.7511 1.5530
H -1.1243 7.0399 2.6580
H -0.9147 7.4091 0.9161
H -4.5985 7.1144 1.3655
H -3.3047 8.0727 0.5071
H -3.3860 8.0223 2.3195
H -2.2346 6.7284 -3.0601
H -3.3267 5.4161 -2.5915
H -1.5055 5.1412 -2.6492
H -5.8040 3.3076 -0.0930
H -4.3058 3.2599 -1.0287
H -5.5012 4.6294 -1.2620
