81
 
N 1.0422 0.0477 -0.0771
C 0.4024 1.3774 0.1436
C 0.4091 -0.4111 -1.3622
C 0.4751 -0.8130 0.9899
Ni 3.1422 0.0477 -0.0771
C 5.2922 0.0477 -0.0771
N 6.0905 -1.0462 -0.1986
C 5.7348 -2.5677 -0.1735
C 6.4712 -3.7320 -0.7613
C 7.7334 -3.7915 -1.6183
C 7.4440 -3.6884 -3.1437
C 8.6500 -2.7410 -1.2313
C 5.9661 -5.0662 -0.6578
C 4.8031 -5.3918 -0.0165
C 4.0501 -4.3943 0.4901
C 4.4654 -3.0481 0.3814
C 3.3777 -2.1364 0.5796
C 3.7321 -1.2123 1.8313
C 3.2614 -1.9301 -1.0376
C 7.4574 -0.4682 -0.0872
C 7.3387 0.9905 -0.4145
N 6.0081 1.2974 -0.0530
C 5.5679 2.5487 0.5121
C 4.3144 3.1390 0.0900
C 3.3821 2.6228 -1.0490
C 2.5348 3.7395 -1.7165
C 3.9900 1.8644 -2.2541
C 3.8776 4.2958 0.7761
C 4.6058 4.8867 1.7771
C 5.8250 4.3874 2.1376
C 6.3693 3.2440 1.5356
C 7.7993 2.8476 2.0133
C 8.4768 3.7355 3.0588
C 7.8850 1.4145 2.5686
H -0.7181 1.2935 0.1028
H 0.6032 2.0937 -0.6749
H 0.6203 1.8020 1.1414
H -0.6919 -0.2840 -1.4029
H 0.4413 -1.5181 -1.5026
H 0.8683 0.1183 -2.2275
H -0.6411 -0.7968 0.9832
H 0.8143 -0.4941 1.9975
H 0.6549 -1.8773 0.8152
H 8.3055 -4.7189 -1.3951
H 6.8372 -2.7767 -3.3678
H 6.9143 -4.5696 -3.5422
H 8.4128 -3.5631 -3.6806
H 8.1305 -1.9581 -1.7871
H 9.6559 -2.7564 -1.6667
H 8.7099 -2.7123 -0.1109
H 6.4767 -5.9083 -1.1089
H 4.4391 -6.4139 0.0261
H 3.0778 -4.6834 0.8919
H 2.4704 -2.6565 0.9280
H 4.8258 -1.0831 1.9800
H 3.4949 -1.7584 2.7734
H 3.2545 -0.1793 1.8649
H 4.0468 -1.3476 -1.4598
H 2.5736 -1.4452 -1.7271
H 2.4192 -1.4527 -1.4084
H 8.3758 -0.5133 -0.6663
H 7.8399 -0.7537 0.9071
H 7.4333 1.2319 -1.5011
H 8.1852 1.4993 0.0076
H 2.6921 1.9693 -0.5433
H 3.2133 4.4940 -2.1695
H 1.8213 4.2321 -1.0323
H 1.8817 3.3270 -2.5161
H 4.6355 2.5310 -2.8547
H 3.1629 1.4805 -2.8962
H 4.5440 0.9558 -2.0606
H 2.9521 4.7943 0.5709
H 4.2271 5.7689 2.2739
H 6.3302 4.9365 2.9116
H 8.4587 3.0313 1.1441
H 7.8984 3.6873 4.0048
H 8.5535 4.7796 2.6907
H 9.5099 3.3723 3.2549
H 7.5420 1.3175 3.6107
H 8.9334 1.0338 2.4762
H 7.1835 0.7635 2.0683
