67
 
P -0.0940 -2.5890 -0.0020
N 0.3628 -0.9763 -0.5867
C 1.0813 -0.3592 0.5567
C 1.4112 -1.1269 -1.6394
O -1.2281 -2.2199 1.1352
C -2.2609 -3.0812 1.2286
C -2.5155 -3.6264 2.4901
C -3.5338 -4.5584 2.6716
C -4.3336 -4.9358 1.5960
C -4.1221 -4.3765 0.3337
C -3.0761 -3.4535 0.1109
C -2.9091 -2.9026 -1.2822
C -4.0607 -2.4202 -1.9397
C -3.9808 -1.8677 -3.2201
C -2.7619 -1.8279 -3.8911
C -1.6182 -2.3349 -3.2857
C -1.6650 -2.8493 -1.9869
O -0.5040 -3.2700 -1.4489
Ni 1.4250 -4.0575 1.2581
P 2.9440 -5.5260 2.5182
O 3.4737 -5.3485 4.1440
C 2.3351 -4.9083 4.9269
C 2.7356 -4.4211 6.3332
C 1.4504 -3.7606 4.3340
O 1.9787 -6.8925 2.8506
C 1.6167 -7.5731 1.6679
C 2.8154 -8.0135 0.7957
C 0.8679 -8.8377 2.1003
O 4.4898 -5.5460 1.7842
C 5.0146 -4.2563 1.5650
C 5.3450 -3.5281 2.8766
C 6.3255 -4.4394 0.7893
H 0.4053 -0.2081 1.4194
H 1.5155 0.6278 0.2833
H 1.9389 -0.9959 0.9133
H 1.0421 -1.6545 -2.5346
H 2.3207 -1.6816 -1.2880
H 1.7664 -0.1315 -1.9900
H -1.8973 -3.3393 3.3313
H -3.6985 -4.9916 3.6490
H -5.1198 -5.6660 1.7411
H -4.7622 -4.6947 -0.4812
H -5.0247 -2.4344 -1.4454
H -4.8665 -1.4656 -3.6935
H -2.6966 -1.3991 -4.8817
H -0.6797 -2.3012 -3.8209
H 1.6943 -5.7977 5.0793
H 3.2993 -3.4606 6.3073
H 3.3175 -5.1792 6.8890
H 1.8045 -4.2267 6.9180
H 1.9952 -2.7931 4.2633
H 0.5558 -3.6200 4.9758
H 1.0142 -3.9939 3.3519
H 0.9173 -6.9372 1.0797
H 3.5266 -8.6285 1.3889
H 3.3580 -7.1513 0.3655
H 2.4568 -8.6004 -0.0745
H 1.5393 -9.5007 2.6919
H 0.5061 -9.4018 1.2148
H -0.0045 -8.5736 2.7337
H 4.3264 -3.6480 0.9335
H 5.9771 -4.1762 3.5238
H 4.4231 -3.2450 3.4181
H 5.8868 -2.5840 2.6671
H 7.0414 -5.0592 1.3761
H 6.7962 -3.4538 0.5890
H 6.1440 -4.9463 -0.1819
