55
 
P 1.0159 0.0789 -0.0593
C 0.1650 -1.5715 -0.1931
C 0.5152 -2.3247 -1.4935
C 0.1366 -3.7638 -1.1436
C 0.7391 -3.9571 0.2339
C 0.7583 -2.5543 0.8450
C 0.6096 0.7538 1.6251
C 1.0744 -0.0592 2.8187
C 0.9348 0.9332 3.9567
C 1.4924 2.2243 3.3868
C 1.2877 2.1071 1.8722
C 0.4369 1.0103 -1.5472
C -1.0903 1.1483 -1.5543
C -1.3212 2.3202 -2.4974
C -0.2906 3.3230 -2.0122
C 0.9268 2.4785 -1.5914
Ni 3.4759 0.0789 -0.0593
O 5.5259 0.0789 -0.0593
C 5.9058 -0.0080 1.2742
C 5.3197 1.1787 2.0019
C 5.4070 -1.3144 1.8816
H -0.9414 -1.5252 -0.1015
H 1.6143 -2.2923 -1.6824
H -0.0159 -1.9541 -2.3954
H 0.4616 -4.5483 -1.8637
H -0.9688 -3.8141 -1.0430
H 1.7969 -4.2977 0.1327
H 0.1949 -4.7137 0.8407
H 1.8397 -2.3116 0.9891
H 0.2457 -2.5494 1.8152
H -0.4933 0.9010 1.7258
H 2.1368 -0.3418 2.6763
H 0.4395 -0.9300 3.0422
H 1.4157 0.6130 4.9052
H -0.1534 1.0836 4.1427
H 2.5882 2.2672 3.5711
H 1.0141 3.1122 3.8549
H 2.2998 2.0531 1.4180
H 0.7428 2.9771 1.4514
H 0.7342 0.5262 -2.5041
H -1.4480 1.4438 -0.5422
H -1.6210 0.2228 -1.8657
H -2.3610 2.7208 -2.4672
H -1.0754 2.0148 -3.5350
H -0.7170 3.7766 -1.0858
H -0.0718 4.1565 -2.7143
H 1.2515 2.8811 -0.6221
H 1.7988 2.5718 -2.2700
H 7.0176 0.0140 1.3304
H 4.2089 1.1243 1.8541
H 5.7297 2.1177 1.5684
H 5.6192 1.1448 3.0736
H 4.2975 -1.3481 1.8580
H 5.7486 -1.3924 2.9368
H 5.8099 -2.1781 1.3136
