76
 
P 0.9505 -0.0411 0.0765
C 0.2917 -0.1213 1.8120
C 0.7813 -1.4029 2.5016
C 0.6657 -1.0734 3.9819
C 1.2216 0.3334 4.0822
C 0.9774 0.9514 2.7020
C 0.3744 1.5795 -0.5860
C 0.9342 2.8011 0.1025
C 0.6072 3.9035 -0.8808
C 0.9472 3.2952 -2.2310
C 0.7295 1.7890 -2.0658
C 0.4250 -1.6106 -0.7329
C -1.0993 -1.7252 -0.8517
C -1.2596 -2.7726 -1.9473
C -0.2299 -2.3567 -2.9873
C 0.9018 -1.6864 -2.1955
Ni 3.4105 -0.0411 0.0765
P 5.8705 -0.0411 0.0765
N 6.8444 -1.3383 -0.6447
C 6.2651 -2.5970 -0.1152
C 6.5483 -1.3787 -2.1099
O 6.2049 -0.2070 1.6801
C 6.2719 0.9463 2.3769
C 5.4420 1.0579 3.4958
C 5.4208 2.2252 4.2548
C 6.2550 3.2894 3.9212
C 7.1148 3.1906 2.8246
C 7.1329 2.0333 2.0144
C 8.0755 2.0104 0.8379
C 9.4123 2.4076 1.0548
C 10.3478 2.3802 0.0173
C 9.9607 2.0025 -1.2661
C 8.6407 1.6484 -1.5189
C 7.6990 1.6258 -0.4892
O 6.4554 1.2203 -0.8086
H -0.8136 -0.0541 1.9128
H 1.8590 -1.5683 2.2710
H 0.1991 -2.3068 2.2243
H 1.1794 -1.7889 4.6630
H -0.4127 -1.0360 4.2408
H 2.3239 0.2937 4.2453
H 0.7709 0.9002 4.9263
H 1.9967 1.1666 2.2949
H 0.4137 1.8944 2.7989
H -0.7404 1.6285 -0.5284
H 2.0320 2.6890 0.2082
H 0.4506 3.0176 1.0669
H 1.1501 4.8484 -0.6667
H -0.4886 4.0894 -0.8422
H 2.0365 3.4407 -2.4032
H 0.3897 3.7599 -3.0722
H 1.7018 1.3134 -2.3182
H -0.0676 1.3791 -2.7304
H 0.7964 -2.5163 -0.2068
H -1.5393 -0.7688 -1.2120
H -1.5962 -2.0154 0.1010
H -2.2906 -2.8488 -2.3632
H -0.9589 -3.7587 -1.5393
H -0.7009 -1.5719 -3.6273
H 0.1005 -3.1801 -3.6549
H 1.0072 -0.6973 -2.6628
H 1.8950 -2.1726 -2.2734
H 6.4166 -2.6724 0.9775
H 6.7293 -3.4902 -0.5883
H 5.1600 -2.6736 -0.3081
H 6.8539 -0.4522 -2.6313
H 5.4615 -1.5394 -2.3427
H 7.0940 -2.2142 -2.6045
H 4.7909 0.2351 3.7607
H 4.7528 2.3039 5.1022
H 6.2323 4.1962 4.5130
H 7.7455 4.0408 2.5907
H 9.7479 2.7041 2.0418
H 11.3784 2.6483 0.2086
H 10.6829 1.9770 -2.0702
H 8.3480 1.3583 -2.5189
