63
 
P 0.9945 -0.0289 -0.0956
C 0.1639 -0.6444 -1.6463
C 0.7098 0.1270 -2.8667
C 0.3345 -0.7574 -4.0430
C 0.6999 -2.1479 -3.5509
C 0.5681 -2.0911 -2.0127
C 0.5350 -1.1373 1.3102
C 0.9679 -2.5905 1.2343
C 0.8357 -3.0334 2.6880
C 1.4465 -1.8781 3.4613
C 1.1417 -0.6323 2.6275
C 0.3903 1.7270 -0.0687
C -1.1391 1.7921 0.0630
C -1.3598 3.2687 0.3325
C -0.2915 3.6038 1.3682
C 0.8310 2.5636 1.1460
Ni 3.4545 -0.0289 -0.0956
N 5.5545 -0.0289 -0.0956
C 6.1837 -0.6044 0.9509
C 7.5653 -0.5128 1.0747
C 8.3321 0.1933 0.1102
N 9.7624 0.4030 0.2757
C 10.5161 -0.0845 1.4288
C 10.5626 1.2022 -0.6475
C 7.6173 0.7262 -0.9988
C 6.2314 0.6081 -1.0742
H -0.9441 -0.5830 -1.6376
H 1.8240 0.1688 -2.8233
H 0.3168 1.1594 -2.9728
H 0.8386 -0.4879 -5.0013
H -0.7640 -0.7017 -4.1898
H 1.7767 -2.3185 -3.7868
H 0.1173 -2.9499 -4.0546
H 1.5841 -2.3228 -1.6177
H -0.1475 -2.8352 -1.6105
H -0.5749 -1.1466 1.4415
H 2.0290 -2.6431 0.9200
H 0.3233 -3.2081 0.5737
H 1.3219 -4.0089 2.9076
H -0.2425 -3.0979 2.9537
H 2.5509 -2.0119 3.4447
H 1.1163 -1.8199 4.5219
H 2.1140 -0.1212 2.4442
H 0.4417 0.0645 3.1388
H 0.6945 2.2749 -0.9842
H -1.4835 1.2061 0.9476
H -1.6888 1.4460 -0.8364
H -2.3926 3.5534 0.6356
H -1.1143 3.8101 -0.6071
H -0.7167 3.4423 2.3873
H 0.0254 4.6652 1.2880
H 0.8219 1.9411 2.0583
H 1.8492 2.9914 1.0509
H 5.5982 -1.1059 1.7114
H 7.9688 -0.9769 1.9540
H 9.9476 -0.6679 2.1628
H 10.9385 0.7804 1.9846
H 11.3488 -0.7330 1.0871
H 10.0266 1.6160 -1.5095
H 11.3942 0.5894 -1.0515
H 10.9853 2.0748 -0.1049
H 8.0661 1.2676 -1.8089
H 5.6866 1.0553 -1.8959
