64
 
P 0.9294 -0.0509 -0.0493
C 0.0976 -1.5557 -0.7171
C 0.5360 -1.7922 -2.1696
C 0.2115 -3.2627 -2.3808
C 0.7575 -3.9137 -1.1228
C 0.6210 -2.8424 -0.0287
C 0.4964 0.0678 1.7503
C 1.0165 -1.0302 2.6501
C 0.7857 -0.4256 4.0291
C 1.2628 1.0092 3.8847
C 1.0603 1.3376 2.4075
C 0.3306 1.3150 -1.1353
C -1.1964 1.4280 -1.0524
C -1.4613 2.8453 -1.5302
C -0.4024 3.6481 -0.7946
C 0.8150 2.7137 -0.6875
Ni 3.3894 -0.0509 -0.0493
N 5.4894 -0.0509 -0.0493
C 5.4536 0.9281 1.0440
C 6.1852 0.6473 -1.1356
C 6.1498 -1.1645 0.5753
C 5.3817 -2.1667 1.1913
C 5.9954 -3.1430 1.9863
C 7.3786 -3.1226 2.1869
C 8.1575 -2.1415 1.5745
C 7.5556 -1.1727 0.7688
H -1.0118 -1.5374 -0.6737
H 1.6410 -1.6635 -2.2663
H 0.0311 -1.1262 -2.9000
H 0.6343 -3.7020 -3.3130
H -0.8917 -3.3785 -2.3916
H 1.8473 -4.0953 -1.2805
H 0.2868 -4.8925 -0.8847
H 1.6529 -2.6966 0.3723
H -0.0422 -3.1638 0.7967
H -0.6135 0.1059 1.8682
H 2.1009 -1.1712 2.4611
H 0.4622 -1.9803 2.5468
H 1.2755 -0.9710 4.8618
H -0.3124 -0.3996 4.2136
H 2.3568 1.0542 4.0819
H 0.7475 1.7042 4.5846
H 2.0747 1.5390 1.9894
H 0.3910 2.2166 2.2751
H 0.6139 1.1907 -2.2036
H -1.5280 1.3568 0.0073
H -1.7325 0.6562 -1.6468
H -2.4975 3.2001 -1.3226
H -1.2623 2.9009 -2.6186
H -0.7896 3.8153 0.2401
H -0.1885 4.6440 -1.2362
H 1.1242 2.7717 0.3584
H 1.7103 3.0358 -1.2544
H 4.9337 1.8553 0.7115
H 6.4399 1.2085 1.4786
H 4.7428 0.5337 1.8235
H 5.5172 1.4195 -1.5783
H 6.5503 -0.0417 -1.9160
H 7.0776 1.2169 -0.7613
H 4.3046 -2.1658 1.0877
H 5.3955 -3.8980 2.4763
H 7.8467 -3.8560 2.8314
H 9.2261 -2.1102 1.7507
H 8.1863 -0.3951 0.3604
