64
 
P 1.0713 0.0694 0.0100
C 0.6403 -0.2448 -1.9332
C 1.2323 0.6972 -3.0468
C 2.7657 0.7028 -3.0515
C 3.2828 -0.7037 -3.3757
C 2.6803 -1.7434 -2.4230
C 1.1354 -1.6242 -2.5145
C 0.4182 -1.2119 1.2813
C -1.1236 -1.3503 1.1906
C -1.5210 -2.0917 -0.0904
C -0.8481 -3.4725 -0.1956
C 0.6708 -3.4833 0.1677
C 0.9733 -2.6624 1.3974
C 0.3592 1.8195 0.3362
C 0.4452 2.4049 1.7849
C 1.8744 2.8191 2.1834
C 2.5027 3.7703 1.1461
C 2.3759 3.1902 -0.2571
C 0.9011 2.9318 -0.5532
Ni 3.5313 0.0694 0.0100
N 5.6313 0.0694 0.0100
C 6.2713 0.1412 1.2086
C 7.6650 0.2503 1.2602
C 8.3922 0.2868 0.0678
Cl 10.1380 0.4532 0.0982
C 7.7191 0.2127 -1.1519
C 6.3272 0.1116 -1.1577
H -0.4403 -0.1460 -2.1260
H 0.7966 1.6814 -3.1457
H 0.9033 0.3438 -4.0543
H 3.1414 1.0331 -2.0730
H 3.1331 1.4093 -3.8252
H 4.3833 -0.7474 -3.3697
H 2.9789 -0.9560 -4.4160
H 3.0486 -1.5960 -1.3745
H 3.0182 -2.7463 -2.7657
H 0.5632 -2.4779 -2.1761
H 0.8732 -1.7466 -3.5932
H 0.6501 -0.7574 2.2684
H -1.6066 -0.3522 1.2376
H -1.5103 -1.9410 2.0529
H -1.2289 -1.4988 -0.9257
H -2.6240 -2.1767 -0.1905
H -1.0089 -3.8777 -1.2229
H -1.3777 -4.1403 0.5088
H 1.3710 -3.0403 -0.5191
H 1.0144 -4.5342 0.2466
H 2.0624 -2.6677 1.6097
H 0.4734 -3.1757 2.2535
H -0.7296 1.7083 0.1335
H -0.0017 1.7327 2.5448
H -0.1725 3.3395 1.8067
H 2.4847 1.9009 2.2706
H 1.8622 3.3396 3.1689
H 3.5742 3.9403 1.3843
H 1.9861 4.7566 1.1583
H 2.9509 2.2508 -0.3067
H 2.7874 3.8962 -1.0068
H 0.7393 2.7003 -1.5595
H 0.3105 3.8670 -0.4286
H 5.6939 0.1365 2.1234
H 8.1710 0.3220 2.2142
H 8.2631 0.2529 -2.0873
H 5.8120 0.0947 -2.0938
