75
 
P 1.0620 0.0222 0.0752
C 0.3387 -1.2563 -1.0880
C -1.0263 -1.5410 -1.3300
C -1.3984 -2.5805 -2.2250
C -0.4319 -3.3332 -2.9010
C 0.9088 -3.0217 -2.7324
C 1.2800 -1.9945 -1.8520
C 0.5675 -0.4644 1.7846
C 1.5639 -0.6738 2.7493
C 1.2338 -0.9429 4.0899
C -0.1000 -0.9932 4.4988
C -1.1124 -0.7411 3.5735
C -0.7897 -0.4688 2.2251
C 0.5375 1.5569 -0.7140
C 0.3042 2.6519 0.1341
C -0.2140 3.8469 -0.3679
C -0.5062 3.9616 -1.7269
C -0.2753 2.8805 -2.5844
C 0.2418 1.6761 -2.0838
Ni 3.5220 0.0222 0.0752
C 5.6720 0.0222 0.0752
N 6.4479 -1.0835 0.1566
C 5.9530 -2.4601 0.1666
C 5.0898 -2.7336 -1.0789
C 5.8317 -2.5912 -2.4192
C 4.8869 -2.8784 -3.5912
C 7.7257 -0.6293 0.1117
C 7.7197 0.7429 0.0339
C 8.9106 1.4869 0.0320
C 10.1253 0.7901 0.0662
C 10.1374 -0.6176 0.0959
C 8.9305 -1.3463 0.1246
N 6.4442 1.1852 -0.0167
C 6.0474 2.6414 -0.0213
C 5.2741 3.0287 1.2362
C 5.2833 2.1258 2.3008
C 4.4483 2.2799 3.3852
C 3.6182 3.3893 3.4805
C 3.6739 4.3884 2.5024
C 4.5006 4.2197 1.3696
H -1.8062 -0.9846 -0.8398
H -2.4388 -2.8246 -2.4012
H -0.7150 -4.1487 -3.5655
H 1.6600 -3.5854 -3.2818
H 2.3228 -1.7770 -1.7744
H 2.6030 -0.6026 2.4624
H 2.0137 -1.1022 4.8228
H -0.3465 -1.2079 5.5367
H -2.1437 -0.7462 3.9207
H -1.6103 -0.2341 1.5584
H 0.5011 2.5738 1.1965
H -0.4041 4.6775 0.3012
H -0.9210 4.8854 -2.1109
H -0.5150 2.9736 -3.6353
H 0.3861 0.8478 -2.7632
H 5.3208 -2.6073 1.0677
H 6.7891 -3.1874 0.1940
H 4.2587 -2.0134 -1.0616
H 4.6734 -3.7610 -1.0095
H 6.6789 -3.3086 -2.4578
H 6.2307 -1.5596 -2.5329
H 4.4806 -3.9103 -3.5184
H 5.4290 -2.7821 -4.5560
H 4.0395 -2.1598 -3.5952
H 8.9323 2.5665 0.0052
H 11.0576 1.3428 0.0623
H 11.0877 -1.1354 0.1041
H 8.9565 -2.4251 0.1567
H 5.4234 2.8472 -0.9121
H 6.9214 3.3291 -0.0888
H 5.9236 1.2632 2.2907
H 4.4459 1.5037 4.1325
H 2.9449 3.4654 4.3225
H 3.0435 5.2654 2.6204
H 4.4810 4.9946 0.6070
