84
 
P 1.0427 -0.0817 0.0388
C 0.1586 1.4416 -0.4200
C -1.2219 1.4930 -0.6323
C -1.8195 2.6757 -1.1008
C -1.0483 3.8172 -1.3494
C 0.3277 3.7834 -1.1319
C 0.9292 2.6017 -0.6777
C 0.5311 -1.2133 -1.2794
C 0.9077 -1.0105 -2.6101
C 0.4286 -1.8627 -3.6158
C -0.4241 -2.9254 -3.2994
C -0.7797 -3.1583 -1.9704
C -0.3019 -2.3104 -0.9614
C 0.6256 -0.2531 1.8128
C -0.0980 0.6530 2.6134
C -0.3515 0.3537 3.9710
C 0.1100 -0.8374 4.5400
C 0.7859 -1.7530 3.7470
C 1.0205 -1.4658 2.3939
Ni 3.5027 -0.0817 0.0388
P 5.9627 -0.0817 0.0388
C 6.9708 1.5436 0.2965
C 6.3917 2.4173 -0.8199
C 4.8716 2.6536 -0.4928
C 4.7591 3.6370 0.6565
C 5.5166 3.0897 1.8888
C 6.9243 2.5439 1.5371
C 6.5643 -1.0320 1.5544
C 6.1308 -0.4936 2.9297
C 4.6183 -0.5959 3.0902
C 4.2228 -2.0756 2.9766
C 4.6252 -2.6700 1.6245
C 6.1387 -2.5320 1.4911
C 6.0796 -1.0181 -1.7383
C 7.2286 -1.3531 -2.6285
C 8.6688 -0.9413 -2.5278
C 7.0697 -2.1615 -3.8066
C 5.8521 -2.6507 -4.2091
C 4.7443 -2.3191 -3.4670
C 4.8525 -1.5427 -2.2846
H -1.8244 0.6137 -0.4719
H -2.8827 2.7061 -1.2890
H -1.5144 4.7243 -1.7200
H 0.9251 4.6688 -1.3333
H 2.0022 2.5974 -0.5444
H 1.5582 -0.1890 -2.8687
H 0.7072 -1.6924 -4.6461
H -0.8092 -3.5675 -4.0838
H -1.4366 -3.9883 -1.7290
H -0.6055 -2.5050 0.0609
H -0.4738 1.5775 2.2096
H -0.9061 1.0412 4.5943
H -0.0639 -1.0629 5.5883
H 1.1359 -2.6850 4.1836
H 1.5300 -2.2031 1.7843
H 8.0483 1.3200 0.1401
H 6.6225 1.9010 -1.7716
H 6.8829 3.4159 -0.9177
H 4.3211 1.7862 -0.1060
H 4.3108 2.9560 -1.3925
H 3.6884 3.7989 0.9214
H 5.1729 4.6015 0.2997
H 4.9510 2.2550 2.3370
H 5.5769 3.9026 2.6525
H 7.4467 2.1888 2.4433
H 7.5357 3.4397 1.2585
H 7.6748 -1.0363 1.5125
H 6.4668 0.5232 3.1092
H 6.6140 -1.1083 3.7284
H 4.1059 0.0373 2.3113
H 4.3321 -0.2259 4.0995
H 3.1723 -2.1875 3.1344
H 4.6817 -2.6687 3.7943
H 4.1230 -2.1559 0.7785
H 4.3224 -3.7393 1.5852
H 6.4935 -3.0320 0.5665
H 6.5968 -3.0918 2.3449
H 8.8836 -0.3330 -1.6464
H 8.9266 -0.3584 -3.4534
H 9.3336 -1.8406 -2.5776
H 7.9103 -2.4373 -4.4499
H 5.7738 -3.2767 -5.1044
H 3.7891 -2.6976 -3.8211
H 3.9225 -1.4246 -1.8293
