64
 
P 0.9258 0.0117 -0.0660
C 0.1526 -0.6220 1.4401
C -1.2208 -0.5910 1.6599
C -1.7489 -1.0536 2.8688
C -0.9138 -1.5734 3.8711
C -1.4917 -2.0121 5.1870
C 0.4656 -1.6558 3.6387
C 0.9973 -1.1734 2.4344
C 0.3109 1.6979 0.0250
C 0.6898 2.5821 1.0258
C 0.0832 3.8406 1.1068
C -0.9057 4.2269 0.1841
C -1.6369 5.5280 0.3508
C -1.2335 3.3666 -0.8716
C -0.6263 2.1090 -0.9522
C 0.5420 -1.2360 -1.2918
C -0.7925 -1.5565 -1.6201
C -1.0729 -2.5703 -2.5367
C -0.0256 -3.2656 -3.1523
C -0.3359 -4.4399 -4.0455
C 1.3112 -2.8839 -2.8865
C 1.6010 -1.8675 -1.9436
Pd 3.3858 0.0117 -0.0660
N 5.4858 0.0117 -0.0660
C 6.1069 0.9628 0.6667
C 5.2590 1.9375 1.4082
C 7.5073 1.0157 0.7065
C 8.2524 0.0728 -0.0176
C 9.7533 0.0961 0.0046
C 7.5800 -0.9024 -0.7667
C 6.1769 -0.9193 -0.7792
C 5.4268 -1.9550 -1.5552
H -1.8789 -0.1866 0.9108
H -2.8150 -0.9956 3.0252
H -2.5822 -1.8036 5.2314
H -1.0087 -1.4414 6.0098
H -1.3295 -3.0971 5.3512
H 1.1254 -2.0718 4.3969
H 2.0726 -1.2319 2.2872
H 1.4306 2.2839 1.7510
H 0.3654 4.5026 1.9105
H -1.3081 6.0535 1.2724
H -2.7236 5.3150 0.4624
H -1.4865 6.1951 -0.5215
H -1.9823 3.6544 -1.6061
H -0.9244 1.4467 -1.7603
H -1.6286 -1.0454 -1.1637
H -2.1079 -2.8276 -2.7489
H -1.4279 -4.6607 -4.0774
H 0.1580 -5.3389 -3.6171
H 0.0246 -4.2835 -5.0814
H 2.1166 -3.4031 -3.3874
H 2.6325 -1.5494 -1.6625
H 4.1700 1.6886 1.2425
H 5.4852 2.9581 1.0335
H 5.5079 1.8938 2.4906
H 8.0080 1.7761 1.2932
H 10.1377 0.9286 0.6315
H 10.1437 0.2260 -1.0268
H 10.1366 -0.8598 0.4204
H 8.1431 -1.6378 -1.3301
H 6.1171 -2.6569 -2.0712
H 4.7921 -1.4638 -2.3193
H 4.7854 -2.5371 -0.8612
