48
 
P 0.9513 -0.0624 -0.0611
C 0.2066 -1.6956 -0.5043
C -1.3107 -1.7912 -0.4928
C 0.7683 -2.1327 -1.8678
C 0.4019 0.3448 1.6427
C 0.8907 -0.6350 2.7021
C 0.8399 1.7740 1.9896
C 0.4758 1.0317 -1.4360
Pd 3.4113 -0.0624 -0.0611
C 5.5613 -0.0624 -0.0611
N 6.3161 -0.5920 0.9156
C 5.8412 -1.2620 2.1162
C 7.5969 -0.3799 0.5579
C 7.5968 0.2991 -0.6442
N 6.3139 0.4836 -1.0269
C 5.8413 1.1066 -2.2276
C 4.5886 0.7538 -2.7718
C 4.1782 1.3243 -3.9854
C 4.9860 2.2695 -4.6308
C 6.2073 2.6468 -4.0709
C 6.6398 2.0581 -2.8847
H 0.5950 -2.4329 0.2326
H -1.7605 -1.0612 -1.1911
H -1.6964 -1.6493 0.5358
H -1.6004 -2.8180 -0.8174
H 0.4019 -1.4783 -2.6834
H 0.4618 -3.1737 -2.1029
H 1.8820 -2.1034 -1.8583
H -0.7096 0.3269 1.6342
H 1.9928 -0.5747 2.8185
H 0.5904 -1.6690 2.4455
H 0.4120 -0.3777 3.6741
H 1.9478 1.8611 1.9780
H 0.4660 2.0640 2.9952
H 0.4201 2.4983 1.2573
H -0.6349 1.0778 -1.4741
H 0.8781 0.7040 -2.4098
H 0.8410 2.0558 -1.2143
H 4.7294 -1.2733 2.1360
H 6.2131 -0.7235 3.0129
H 6.2174 -2.3066 2.1334
H 8.4648 -0.6963 1.1214
H 8.4703 0.6023 -1.2064
H 3.9542 0.0158 -2.2822
H 3.2372 1.0332 -4.4330
H 4.6693 2.7138 -5.5653
H 6.8271 3.3896 -4.5576
H 7.5918 2.3605 -2.4686
