80
 
P 1.0491 -0.0109 0.0864
C 0.2763 -1.0060 -1.2048
C -1.0967 -1.1902 -1.3454
C -1.5935 -2.0775 -2.3100
C -3.0607 -2.3444 -2.3783
C -0.7112 -2.7565 -3.1654
C 0.6617 -2.5313 -3.0717
C 1.1539 -1.6601 -2.0969
C 0.6447 -1.1637 1.4111
C -0.0896 -0.6613 2.5110
C -0.3690 -1.4751 3.6214
C -1.0667 -0.9266 4.8399
C 0.0487 -2.8107 3.6041
C 0.7474 -3.3182 2.5015
C 1.0575 -2.4949 1.4124
C 0.5033 1.6961 0.0481
C 1.4406 2.7308 0.0686
C 0.9922 4.0678 0.1642
C 1.9607 5.2012 0.2689
C -0.3862 4.3487 0.2026
C -1.3133 3.3118 0.1695
C -0.8711 1.9943 0.1095
Pd 3.5091 -0.0109 0.0864
P 5.9691 -0.0109 0.0864
C 6.6516 0.9027 1.5591
C 6.1920 0.1583 2.8479
C 8.1763 1.0113 1.5730
C 5.9815 2.2890 1.6369
C 6.4253 -1.7710 0.1423
C 5.4289 -2.7599 0.1458
C 5.8019 -4.1237 0.1928
C 7.1546 -4.4962 0.2353
C 8.1433 -3.5170 0.1834
C 7.7834 -2.1672 0.1199
C 6.4169 0.9461 -1.3996
C 5.4205 1.3976 -2.2782
C 5.7664 1.9374 -3.5294
C 7.1070 2.0432 -3.9116
C 8.1084 1.6051 -3.0479
C 7.7689 1.0467 -1.8089
H -1.7836 -0.6925 -0.6921
H -3.6184 -1.6997 -1.6656
H -3.2214 -3.4014 -2.0841
H -3.4524 -2.1715 -3.4012
H -1.0856 -3.4631 -3.8968
H 1.3442 -3.0538 -3.7342
H 2.2288 -1.5221 -2.0222
H -0.4176 0.3734 2.5243
H -1.3339 0.1457 4.7215
H -0.3788 -1.0060 5.7103
H -1.9901 -1.5002 5.0662
H -0.1571 -3.4540 4.4513
H 1.0685 -4.3490 2.5016
H 1.6207 -2.8862 0.5787
H 2.5054 2.4719 0.0560
H 3.0075 4.8397 0.2171
H 1.8116 5.7067 1.2482
H 1.7834 5.9335 -0.5457
H -0.7461 5.3687 0.2772
H -2.3763 3.5243 0.2173
H -1.6180 1.2231 0.1403
H 6.6190 -0.8620 2.9425
H 5.0821 0.0624 2.8818
H 6.4898 0.7270 3.7590
H 8.6366 0.0080 1.5889
H 8.5231 1.5288 2.4900
H 8.5404 1.5934 0.7122
H 4.8735 2.1698 1.7075
H 6.2036 2.9206 0.7571
H 6.3070 2.8251 2.5572
H 4.3733 -2.4489 0.1029
H 5.0523 -4.9035 0.2004
H 7.4437 -5.5420 0.2941
H 9.1912 -3.8045 0.1907
H 8.5831 -1.4488 0.0501
H 4.3767 1.2805 -2.0243
H 4.9950 2.2486 -4.2212
H 7.3711 2.4418 -4.8856
H 9.1471 1.6652 -3.3572
H 8.5766 0.6512 -1.2134
