46
 
P 0.9928 0.0403 0.0912
C 0.2449 0.0530 1.7812
C -1.2729 0.0879 1.8653
C 0.8105 -1.1397 2.5710
C 0.4476 1.5734 -0.7578
C 0.9406 2.8544 -0.0966
C 0.8886 1.5224 -2.2264
C 0.5241 -1.5822 -0.5880
Pd 3.4528 0.0403 0.0912
P 5.9128 0.0403 0.0912
N 6.8366 0.2853 1.5833
C 6.4730 -0.6814 2.6377
C 8.2624 0.4895 1.4323
O 6.4325 -1.5422 -0.2713
C 6.0640 -1.8163 -1.6030
O 6.2190 1.5943 -0.5450
C 5.8422 1.6055 -1.9011
H 0.6299 0.9628 2.2921
H -1.7219 -0.7840 1.3542
H -1.6574 1.0373 1.4435
H -1.5658 0.0588 2.9408
H 0.4483 -2.1040 2.1626
H 0.5056 -1.0862 3.6371
H 1.9246 -1.1335 2.5377
H -0.6638 1.5740 -0.7403
H 2.0440 2.9414 -0.1781
H 0.6334 2.8891 0.9663
H 0.4723 3.7244 -0.6100
H 1.9969 1.4859 -2.3046
H 0.5162 2.4132 -2.7768
H 0.4676 0.6227 -2.7269
H -0.5862 -1.6375 -0.6224
H 0.9299 -2.4277 -0.0066
H 0.8917 -1.6471 -1.6329
H 5.3699 -0.8426 2.6827
H 6.7605 -0.2787 3.6350
H 6.9764 -1.6597 2.4921
H 8.4309 1.3610 0.7695
H 8.7422 -0.4232 1.0346
H 8.6888 0.7517 2.4271
H 6.5553 -2.7580 -1.9220
H 6.4304 -1.0536 -2.3222
H 4.9651 -1.9587 -1.6878
H 5.7285 2.6609 -2.2220
H 4.8516 1.1250 -2.0783
H 6.6412 1.1703 -2.5408
