81
 
P 0.9754 0.0061 0.0967
C 0.2634 1.2695 1.1651
C -1.0884 1.6005 1.2687
C -1.4885 2.5989 2.1687
C -0.5485 3.2651 2.9883
O -0.9083 4.2446 3.8591
C -2.1868 4.7497 3.9802
C 0.7986 2.9068 2.8995
C 1.1975 1.9250 1.9926
C 0.4715 0.5577 -1.5272
C 0.8554 1.7754 -2.0577
C 0.3911 2.1551 -3.3162
C -0.4601 1.3142 -4.0689
O -0.9596 1.6927 -5.2738
C -0.7866 2.9504 -5.8166
C -0.8095 0.0629 -3.5503
C -0.3467 -0.3136 -2.2861
C 0.4916 -1.5334 0.8744
C -0.8649 -1.8646 0.9446
C -1.2725 -3.0582 1.5313
C -0.3233 -3.9579 2.0508
O -0.6944 -5.1132 2.6656
C -2.0004 -5.4618 2.9622
C 1.0433 -3.6392 1.9441
C 1.4446 -2.4226 1.3629
Pd 3.4354 0.0061 0.0967
P 5.8954 0.0061 0.0967
C 6.6864 0.8915 1.4749
C 5.8211 1.5780 2.3598
C 6.3243 2.2668 3.4712
C 7.6975 2.2704 3.7195
Cl 8.3476 3.1280 5.1054
C 8.5581 1.5857 2.8595
C 8.0597 0.9070 1.7451
C 6.3123 -1.7192 0.4496
C 5.2907 -2.6554 0.5664
C 5.5876 -4.0097 0.8073
C 6.9207 -4.4287 0.9219
Cl 7.3087 -6.1062 1.2674
C 7.9512 -3.5056 0.7485
C 7.6501 -2.1649 0.5006
C 6.4454 0.8461 -1.4004
C 5.5288 1.2807 -2.3685
C 5.9913 1.7114 -3.6251
C 7.3631 1.7129 -3.9140
Cl 7.9427 2.1886 -5.5014
C 8.2756 1.2972 -2.9455
C 7.8195 0.8631 -1.7018
H -1.8316 1.1072 0.6640
H -2.5366 2.8470 2.2238
H -2.2124 5.5387 4.7584
H -2.8869 3.9395 4.2738
H -2.5070 5.1936 3.0122
H 1.5425 3.3879 3.5287
H 2.2494 1.6625 1.9483
H 1.5009 2.4296 -1.4944
H 0.6954 3.1172 -3.6900
H -1.3091 3.0222 -6.7901
H 0.2946 3.1475 -5.9749
H -1.2101 3.7162 -5.1284
H -1.4512 -0.6107 -4.1148
H -0.6416 -1.2867 -1.9025
H -1.6161 -1.2022 0.5407
H -2.3321 -3.2676 1.5759
H -2.0203 -6.4345 3.4934
H -2.5993 -5.5540 2.0312
H -2.4570 -4.6924 3.6245
H 1.7897 -4.3259 2.3259
H 2.4810 -2.1413 1.2920
H 4.7481 1.5835 2.1977
H 5.6509 2.7925 4.1409
H 9.6209 1.5733 3.0525
H 8.7646 0.3992 1.1287
H 4.2813 -2.3004 0.4452
H 4.7910 -4.7352 0.9040
H 8.9871 -3.8239 0.8012
H 8.4782 -1.5034 0.3377
H 4.4633 1.2290 -2.1763
H 5.2864 2.0093 -4.3900
H 9.3371 1.2711 -3.1655
H 8.5507 0.4886 -1.0089
