102
 
P 0.9648 -0.0927 0.0131
C 0.1516 0.8022 1.5642
C -1.2906 1.0133 1.7148
C -2.3193 0.6781 0.6993
C -1.8720 1.3227 2.9658
C -1.1129 1.4675 4.1085
C -1.6994 1.6938 5.4668
C 0.2391 1.3606 4.0237
C 0.9028 1.0470 2.8233
C 2.3732 0.8879 3.1152
C 0.4731 0.9447 -1.6107
C 1.2459 2.0718 -2.1116
C 2.4930 2.5882 -1.4806
C 0.8702 2.8001 -3.2889
C -0.2871 2.5031 -3.9959
C -0.7929 3.2403 -5.2059
C -1.0377 1.4569 -3.5826
C -0.6906 0.6668 -2.4787
C -1.6673 -0.4437 -2.3886
C 0.4376 -1.8620 -0.0947
C -0.4285 -2.5136 0.8701
C -1.0366 -1.9783 2.1059
C -0.8144 -3.8188 0.7219
C -0.3846 -4.5657 -0.3368
C -0.8471 -5.9789 -0.3946
C 0.4546 -3.9927 -1.3032
C 0.8722 -2.6423 -1.2076
C 1.7495 -2.0681 -2.3156
Pd 3.4248 -0.0927 0.0131
C 5.5748 -0.0927 0.0131
N 6.3464 0.4269 1.0165
C 5.8215 1.0245 2.2327
C 6.2802 2.4724 2.4031
C 5.8485 3.3841 1.2561
C 6.3606 4.7962 1.5232
C 7.6531 0.2508 0.6460
C 7.6716 -0.3509 -0.5705
C 8.8713 -0.6919 -1.2285
C 10.0852 -0.3883 -0.6049
C 10.0878 0.2388 0.6523
C 8.8704 0.5638 1.2984
N 6.4018 -0.5751 -0.9689
C 6.0935 -1.3202 -2.1642
C 6.2176 -0.5662 -3.4392
C 6.8383 -1.2531 -4.4590
C 6.9436 -0.8009 -5.7359
C 6.0835 0.2156 -6.0881
C 5.3561 0.9161 -5.0996
C 5.5241 0.6065 -3.7348
H -1.8361 0.1861 -0.1123
H -2.9124 1.5689 0.4134
H -3.0276 -0.0791 1.1058
H -2.9494 1.3581 3.0731
H -2.8044 1.7311 5.4399
H -1.2912 2.6489 5.8532
H -1.3830 0.8721 6.1558
H 0.7726 1.4694 4.9693
H 2.6580 1.0937 4.1853
H 2.8025 1.9168 3.1047
H 2.5123 -0.1250 3.5580
H 2.7090 2.1104 -0.5145
H 2.3920 3.6864 -1.3257
H 3.3281 2.4343 -2.1950
H 1.4713 3.6282 -3.6511
H -0.1191 4.0535 -5.5281
H -1.7976 3.6618 -4.9659
H -0.9331 2.5169 -6.0439
H -1.9315 1.2479 -4.1750
H -2.1981 -0.6859 -3.3378
H -2.6091 0.0039 -1.9923
H -1.0772 -1.3632 -2.3826
H -0.7057 -1.0780 2.2173
H -0.6236 -2.3679 3.0480
H -2.1497 -1.9487 2.0667
H -1.4746 -4.2620 1.4675
H -1.5238 -6.2211 0.4609
H 0.0361 -6.6395 -0.3234
H -1.4121 -6.1353 -1.3304
H 0.7642 -4.6057 -2.1363
H 1.9880 -2.8536 -3.0702
H 2.6961 -1.6016 -1.9082
H 1.2097 -1.2873 -2.8903
H 6.1709 0.4349 3.1066
H 4.7149 0.9891 2.1849
H 7.3814 2.5116 2.4831
H 5.8547 2.8566 3.3533
H 4.7396 3.3940 1.1803
H 6.2718 3.0214 0.2929
H 5.9477 5.1746 2.4832
H 6.0533 5.4751 0.7034
H 7.4711 4.7923 1.5908
H 8.8936 -1.1807 -2.1933
H 11.0200 -0.6454 -1.0957
H 11.0412 0.4620 1.1178
H 8.9240 1.0288 2.2682
H 5.0796 -1.7311 -2.1576
H 6.7956 -2.1940 -2.1762
H 7.0655 -2.2791 -4.3180
H 7.5165 -1.3795 -6.4476
H 5.9377 0.3523 -7.1451
H 4.6190 1.6450 -5.3918
H 4.9812 1.1336 -2.9633
