83
 
P 0.9862 0.0761 0.0634
C 0.1751 1.6895 0.1701
C -1.2062 1.8546 0.0930
C -1.7647 3.1359 0.1955
C -0.9492 4.2575 0.3924
F -1.5002 5.4934 0.4887
C 0.4326 4.1021 0.4955
C 0.9937 2.8255 0.3822
C 0.3720 -0.2907 -1.5842
C 0.7641 0.4081 -2.7218
C 0.1840 0.0972 -3.9600
C -0.7880 -0.9083 -4.0617
F -1.3684 -1.1792 -5.2571
C -1.1641 -1.6303 -2.9292
C -0.5815 -1.3290 -1.6961
C 0.5959 -0.8821 1.5500
C -0.1515 -0.3560 2.6197
C -0.4215 -1.1451 3.7474
C 0.0462 -2.4607 3.8155
F -0.2031 -3.2167 4.9145
C 0.7686 -2.9972 2.7481
C 1.0392 -2.2134 1.6207
Pd 3.4462 0.0761 0.0634
P 5.9062 0.0761 0.0634
N 6.7226 -1.4698 -0.1199
C 6.1197 -2.4617 0.8263
C 4.5629 -2.5520 0.7136
C 6.6567 -3.8732 0.5845
C 8.1778 -1.3536 -0.1625
C 8.6056 0.0903 0.0734
C 10.1394 0.1455 0.0627
C 8.0273 1.0200 -1.0874
N 6.5363 1.0045 -1.3012
C 5.9650 2.4078 -1.2496
C 6.5325 3.4035 -2.2698
C 4.4222 2.4943 -1.3654
N 6.5398 0.3928 1.6912
C 5.9871 1.7063 2.2102
C 4.4505 1.7483 2.3247
C 6.5634 2.1827 3.5495
C 8.0366 0.5124 1.4961
H -1.8400 0.9940 -0.0484
H -2.8343 3.2582 0.1243
H 1.0651 4.9697 0.6642
H 2.0682 2.7357 0.4764
H 1.5065 1.1874 -2.6427
H 0.4798 0.6455 -4.8410
H -1.9139 -2.4127 -3.0046
H -0.9005 -1.8953 -0.8257
H -0.5296 0.6555 2.5939
H -0.9925 -0.7373 4.5721
H 1.1201 -4.0209 2.7949
H 1.5948 -2.6490 0.8008
H 6.3593 -2.1712 1.8706
H 4.2389 -2.8003 -0.3235
H 4.0516 -1.6334 1.0554
H 4.1658 -3.3357 1.3916
H 6.3965 -4.2165 -0.4387
H 6.2039 -4.5615 1.3302
H 7.7497 -3.9305 0.7240
H 8.5241 -1.7032 -1.1616
H 8.6501 -1.9895 0.6102
H 10.5271 -0.1875 -0.9259
H 10.5507 -0.5352 0.8395
H 10.4961 1.1750 0.2620
H 8.4921 0.7367 -2.0566
H 8.3977 2.0359 -0.8412
H 6.2574 2.8714 -0.3213
H 6.2282 3.1387 -3.2987
H 7.6307 3.5087 -2.2084
H 6.1229 4.4152 -2.0266
H 4.0605 2.2939 -2.3894
H 4.0935 3.5117 -1.0478
H 3.8823 1.8375 -0.7171
H 6.2904 2.5227 1.5685
H 4.0701 1.0177 3.0631
H 3.9625 1.5655 1.3762
H 4.1100 2.7727 2.5968
H 6.2869 1.5034 4.3737
H 6.1508 3.2000 3.7619
H 7.6605 2.3230 3.5120
H 8.5151 -0.1174 2.2765
H 8.4023 1.5489 1.6435
