48
 
P 0.9606 0.0424 -0.0815
C 0.0143 0.3233 -1.6079
C 0.5192 -1.7175 0.0059
C 0.4801 1.3385 1.0583
C -0.2071 0.9919 2.2324
C -0.6405 1.9859 3.1142
C -0.3916 3.3298 2.8255
C 0.3072 3.6780 1.6640
C 0.7487 2.6838 0.7823
Pd 3.4206 0.0424 -0.0815
P 5.8806 0.0424 -0.0815
C 6.8207 -1.5108 -0.0389
C 6.2662 0.4802 -1.7859
C 5.2385 0.7736 -2.6886
C 5.5442 1.2276 -3.9784
C 6.8763 1.3919 -4.3722
C 7.9077 1.1175 -3.4720
C 7.6064 0.6710 -2.1805
C 6.2713 1.1133 1.2710
C 5.2164 1.6926 1.9804
C 5.5317 2.6089 3.0098
C 6.8733 2.9308 3.2998
C 7.9104 2.3398 2.5748
C 7.6103 1.4311 1.5601
H -1.0791 0.2845 -1.4801
H 0.3673 -0.3848 -2.3905
H 0.3099 1.3363 -1.9707
H -0.5931 -1.7888 0.0440
H 0.8885 -2.1068 0.9795
H 0.9166 -2.3196 -0.8285
H -0.4151 -0.0461 2.4633
H -1.1771 1.7150 4.0155
H -0.7416 4.0999 3.5011
H 0.4982 4.7195 1.4434
H 1.2796 2.9620 -0.1184
H 6.4490 -2.1828 -0.8435
H 6.5312 -2.0033 0.9206
H 7.9147 -1.3938 -0.0649
H 4.2045 0.6845 -2.3837
H 4.7479 1.4681 -4.6695
H 7.1091 1.7466 -5.3690
H 8.9388 1.2676 -3.7714
H 8.4208 0.4987 -1.4877
H 4.1701 1.4250 1.6759
H 4.7496 3.0897 3.5796
H 7.1182 3.6460 4.0784
H 8.9448 2.5939 2.7893
H 8.4223 0.9910 0.9927
