72
 
P 0.6134 0.5594 -0.3767
Cl -0.3429 -0.8409 0.8602
Cl -0.4099 2.2565 0.2311
Cl 0.4128 -0.2177 -2.3486
Pd 3.0424 0.6410 -0.0211
C 5.5920 0.3353 -0.0408
N 6.3159 -0.8196 -0.0016
C 5.8305 -2.2550 -0.0267
C 6.6383 -3.4408 -0.4027
C 8.0086 -3.3860 -1.0414
C 8.6925 -4.7054 -1.4685
C 7.7631 -2.6777 -2.3439
C 6.0863 -4.7523 -0.3637
C 4.8206 -4.9999 0.0336
C 4.0282 -3.9640 0.2697
C 4.4569 -2.6279 0.1961
C 3.3286 -1.7117 0.3396
C 2.4137 -1.9997 -0.9204
C 2.7336 -1.8899 1.7101
C 7.7594 -0.4511 0.3047
C 7.8845 0.9250 -0.2070
N 6.5249 1.4580 -0.0920
C 6.1171 2.7164 0.4443
C 4.8143 3.1859 0.1098
C 4.0085 2.6080 -1.0796
C 2.6015 3.1759 -1.1569
C 4.6260 2.6074 -2.4419
C 4.2618 4.2035 0.9073
C 4.9418 4.7306 1.9762
C 6.2563 4.4042 2.1863
C 6.9151 3.4600 1.3898
C 8.4282 3.2983 1.5718
C 9.1009 3.7232 0.2127
C 9.0763 4.1815 2.6391
H 8.6998 -2.8981 -0.3478
H 8.1089 -5.2646 -2.2457
H 8.8664 -5.3553 -0.5919
H 9.6628 -4.4396 -1.9398
H 6.9811 -3.2731 -2.9034
H 8.6725 -2.5923 -2.9593
H 7.4518 -1.6680 -2.0740
H 6.5887 -5.6416 -0.6845
H 4.3929 -5.9893 0.0901
H 3.0119 -4.2475 0.4695
H 3.8693 -0.8932 0.4148
H 2.2637 -3.0699 -1.1874
H 2.7631 -1.5180 -1.8653
H 1.3709 -1.8390 -0.7292
H 2.1440 -2.7933 1.5672
H 1.9950 -1.4536 2.3820
H 3.6159 -1.7801 2.3869
H 8.7379 -0.9004 -0.0233
H 7.9370 -0.3733 1.4168
H 8.1875 0.9146 -1.2752
H 8.7859 1.3326 0.2596
H 4.0959 1.5899 -1.1102
H 2.7120 4.2692 -1.3756
H 2.0545 3.0800 -0.2007
H 1.9869 2.7587 -1.9731
H 4.7510 3.6438 -2.7287
H 3.9526 2.0849 -3.1828
H 5.5705 2.0058 -2.4105
H 3.2794 4.6023 0.7550
H 4.4556 5.4436 2.6181
H 6.7437 4.9141 2.9948
H 8.6277 2.2836 1.9701
H 8.8409 4.7731 -0.0339
H 8.7774 3.2057 -0.7166
H 10.2027 3.6033 0.2798
H 8.9339 5.2404 2.3448
H 10.1732 4.0157 2.7264
H 8.6221 3.9434 3.6228
