70
 
P 0.9287 -0.0591 -0.0376
C 0.0129 -1.6293 -0.0440
C 0.4593 0.3480 1.6692
C 0.4610 0.8416 -1.5220
C -0.1967 2.0829 -1.4518
C -0.5506 2.7558 -2.6327
C -0.2358 2.1986 -3.8777
C 0.4206 0.9680 -3.9395
C 0.7471 0.2997 -2.7595
Pd 3.3887 -0.0591 -0.0376
P 5.8487 -0.0591 -0.0376
C 6.3227 -0.8721 -1.6734
C 5.6622 -2.2991 -1.8258
C 4.1430 -2.2775 -2.1199
C 3.8616 -1.4283 -3.3588
C 4.3616 0.0044 -3.1071
C 5.8960 -0.0512 -2.9265
C 6.6431 1.6290 -0.2013
C 6.3433 2.3768 1.1274
C 7.1111 1.7820 2.3455
C 8.6288 1.6458 2.1272
C 9.0081 1.0756 0.7473
C 8.2033 1.7171 -0.3897
C 6.1150 -1.1486 1.4656
C 5.2588 -1.1650 2.6381
C 3.8566 -0.6227 2.7893
C 5.7722 -1.6605 3.8618
C 7.0696 -2.1344 3.9712
C 7.8648 -2.2085 2.8408
C 7.3880 -1.7485 1.6065
H -1.0827 -1.5192 -0.0366
H 0.3712 -2.2578 0.8027
H 0.3301 -2.1711 -0.9657
H -0.6540 0.3909 1.7147
H 0.8176 1.3801 1.8749
H 0.8473 -0.3560 2.4237
H -0.4387 2.5283 -0.4949
H -1.0673 3.7063 -2.5873
H -0.5058 2.7111 -4.7926
H 0.6665 0.5243 -4.8953
H 1.2044 -0.6528 -2.7729
H 7.4218 -1.0008 -1.6893
H 5.8413 -2.9303 -0.9320
H 6.1229 -2.8242 -2.6951
H 3.5858 -1.8718 -1.2563
H 3.7600 -3.3094 -2.2985
H 2.8006 -1.4602 -3.6143
H 4.3429 -1.8684 -4.2598
H 3.8487 0.4683 -2.2030
H 4.1333 0.6090 -4.0156
H 6.3261 0.9639 -2.9102
H 6.3127 -0.5416 -3.8410
H 6.1742 2.1543 -1.0530
H 5.2520 2.3325 1.3363
H 6.6274 3.4429 1.0199
H 6.7355 0.8065 2.5775
H 6.8991 2.3479 3.2762
H 9.0635 0.9952 2.9270
H 9.0803 2.6492 2.2199
H 8.8445 0.0168 0.6727
H 10.1060 1.1901 0.5988
H 8.5309 1.2796 -1.3550
H 8.4948 2.7931 -0.4050
H 3.3775 -0.1012 1.9818
H 3.8442 0.1295 3.6055
H 3.2062 -1.4690 3.1170
H 5.1767 -1.6248 4.7700
H 7.4554 -2.4438 4.9383
H 8.8763 -2.5859 2.9355
H 8.0630 -1.8140 0.7736
