74
 
P 1.0526 0.0651 -0.0547
C 0.1383 -1.4240 -0.5768
C -1.2477 -1.6647 -0.4808
C -1.7395 -2.9777 -0.6693
C -0.8670 -4.0341 -0.9659
F -1.3295 -5.3066 -1.0758
C 0.4909 -3.7829 -1.1251
C 0.9822 -2.4930 -0.9339
C 0.7751 0.1639 1.7300
C 1.8820 0.1308 2.5887
C 1.6663 0.1990 3.9883
C 0.3677 0.3401 4.5116
F 0.1670 0.4345 5.8536
C -0.7261 0.4014 3.6496
C -0.5277 0.3032 2.2669
C 0.4686 1.3972 -1.1613
C -0.1614 2.5054 -0.5400
C -0.6890 3.5616 -1.2912
C -0.5943 3.5361 -2.6792
F -1.1302 4.5478 -3.4108
C 0.0517 2.4659 -3.3110
C 0.5878 1.3992 -2.5588
Pd 3.5126 0.0651 -0.0547
C 5.6626 0.0651 -0.0547
N 6.4300 -1.0522 -0.0418
C 5.8978 -2.4082 0.0116
C 5.0859 -2.7022 -1.2544
C 5.9237 -2.6072 -2.5372
C 7.0734 -3.6131 -2.5528
C 7.7192 -0.6136 -0.0307
C 7.7115 0.7530 -0.0528
C 8.8901 1.5118 -0.0745
C 10.1111 0.8301 -0.0627
C 10.1361 -0.5783 -0.0273
C 8.9330 -1.3219 -0.0083
N 6.4353 1.1781 -0.0616
C 5.9833 2.5480 -0.1486
C 5.1199 2.8757 1.0394
C 4.7129 4.3346 0.9196
C 3.8355 4.7210 2.0832
H -1.9422 -0.8874 -0.2051
H -2.7926 -3.1973 -0.5465
H 1.1744 -4.5936 -1.3544
H 2.0482 -2.3431 -1.0091
H 2.8942 0.0657 2.1311
H 2.4952 0.1582 4.6817
H -1.7273 0.5285 4.0563
H -1.3977 0.3584 1.6278
H -0.2566 2.5638 0.5374
H -1.1799 4.3967 -0.7986
H 0.1248 2.4654 -4.3898
H 1.0730 0.5822 -3.0680
H 5.2344 -2.4988 0.9002
H 6.7093 -3.1495 0.1481
H 4.2569 -1.9613 -1.3278
H 4.6470 -3.7200 -1.1747
H 6.3277 -1.5777 -2.6555
H 5.2583 -2.8145 -3.4020
H 7.7958 -3.4066 -1.7412
H 7.6265 -3.5393 -3.5097
H 6.6776 -4.6431 -2.4312
H 8.8920 2.5920 -0.1008
H 11.0355 1.3967 -0.0801
H 11.0946 -1.0814 -0.0183
H 8.9752 -2.3999 0.0167
H 5.4194 2.6848 -1.0967
H 6.8450 3.2449 -0.1661
H 5.6981 2.7047 1.9757
H 4.2256 2.2086 1.0427
H 4.1584 4.4842 -0.0332
H 5.6209 4.9808 0.9114
H 2.9445 4.0584 2.1044
H 3.5180 5.7741 1.9541
H 4.4124 4.6137 3.0262
