35
 
P 0.9347 0.0143 0.0744
C 0.0223 0.1065 -1.4952
C 0.4686 -1.7043 0.4265
C 0.4044 1.4479 0.9983
C -0.9690 1.6391 1.2301
C -1.4120 2.7173 1.9973
C -0.4846 3.6070 2.5424
C 0.8883 3.4124 2.3241
C 1.3398 2.3271 1.5508
Pd 3.3947 0.0143 0.0744
N 5.4947 0.0143 0.0744
C 6.1361 1.1113 0.5553
C 7.5232 1.2225 0.4360
C 8.2479 0.1849 -0.1678
C 9.7285 0.3048 -0.3822
C 7.5670 -0.9599 -0.6062
C 6.1751 -1.0217 -0.4834
H -1.0739 0.0819 -1.3904
H 0.3856 -0.7019 -2.1683
H 0.3316 1.0635 -1.9768
H -0.6446 -1.7562 0.4607
H 0.8180 -1.9319 1.4579
H 0.8728 -2.4385 -0.2894
H -1.6990 0.9449 0.8308
H -2.4728 2.8563 2.1752
H -0.8343 4.4405 3.1401
H 1.5957 4.1015 2.7643
H 2.4063 2.1467 1.3840
H 5.5608 1.9200 0.9866
H 8.0198 2.1192 0.7855
H 10.1085 1.2966 -0.0553
H 9.9445 0.2032 -1.4683
H 10.2692 -0.4895 0.1708
H 8.1041 -1.7766 -1.0726
H 5.6329 -1.8773 -0.8630
