76
 
P 0.9721 0.0946 0.0164
C 0.3606 0.6490 -1.7396
C -0.8931 1.2627 -2.1591
C -2.0717 1.5811 -1.3017
C -1.0894 1.6746 -3.5142
C -0.0973 1.5245 -4.4787
C -0.2349 1.9395 -5.9122
C 1.0931 0.9807 -4.1087
C 1.3263 0.5803 -2.8014
C 2.6462 0.0194 -2.6098
C 0.4488 -1.6737 -0.1214
C 1.3003 -2.7457 -0.5558
C 2.7397 -2.6495 -0.9844
C 0.8248 -4.0606 -0.5524
C -0.4188 -4.3868 -0.0372
C -0.8657 -5.8111 0.0117
C -1.2301 -3.3913 0.4750
C -0.8411 -2.0477 0.4409
C -1.8593 -1.1074 1.0724
C 0.6638 1.0454 1.6605
C 0.5420 0.2774 2.8953
C 0.7666 -1.2089 3.0699
C 0.1356 0.8777 4.1024
C -0.1230 2.2272 4.1936
C -0.5459 2.8722 5.4810
C 0.0220 3.0094 3.0750
C 0.3988 2.4841 1.8159
C 0.4467 3.5787 0.7691
Pd 3.4321 0.0946 0.0164
N 5.5321 0.0946 0.0164
C 6.1770 -0.5870 -0.9690
C 7.5718 -0.7407 -0.9253
C 8.2993 -1.5685 -1.9437
C 8.2818 -0.1463 0.1249
C 7.6005 0.5703 1.1104
C 6.2083 0.6734 1.0436
H -1.8893 1.3929 -0.2458
H -2.9558 1.0264 -1.7038
H -2.2976 2.6669 -1.3648
H -2.0203 2.1382 -3.8250
H -1.2251 2.3810 -6.1263
H -0.0757 1.0495 -6.5619
H 0.5599 2.6830 -6.1511
H 1.8639 0.8648 -4.8668
H 3.3035 -0.0452 -3.4955
H 2.2924 -0.9657 -2.4666
H 3.1603 0.5892 -1.8437
H 3.1909 -1.6589 -0.8316
H 2.8068 -2.9547 -2.0559
H 3.3748 -3.3421 -0.4059
H 1.4620 -4.8578 -0.9142
H -0.1025 -6.4828 -0.4334
H -1.8131 -5.9204 -0.5541
H -1.0208 -6.1088 1.0702
H -2.1828 -3.6746 0.9131
H -2.7284 -1.6307 1.5252
H -2.2908 -0.4827 0.3087
H -1.4992 -0.4933 1.9015
H 1.1883 -1.7287 2.2069
H -0.1894 -1.7010 3.3688
H 1.4797 -1.3748 3.9033
H 0.0113 0.2743 4.9965
H -0.6159 2.1410 6.3126
H -1.5354 3.3631 5.3498
H 0.2052 3.6456 5.7470
H -0.1999 4.0652 3.2108
H 0.4865 4.5901 1.2585
H -0.5085 3.6538 0.2125
H 1.3841 3.5698 0.1898
H 5.5944 -1.0511 -1.7547
H 7.6078 -1.9777 -2.7104
H 8.7788 -2.4259 -1.4232
H 9.0861 -0.9702 -2.4479
H 9.3579 -0.2547 0.1879
H 8.1454 1.0141 1.9333
H 5.6630 1.1849 1.8253
