68
 
P 1.0827 -0.0555 -0.0084
C 0.2952 -1.6217 0.3437
C -1.0748 -1.7564 0.5002
C -1.6160 -2.9958 0.8145
C -0.7947 -4.1321 0.9721
O -1.3082 -5.3363 1.3321
C -2.6306 -5.5318 1.6805
C 0.5862 -4.0064 0.7719
C 1.1296 -2.7549 0.4624
C 0.5289 0.7487 1.5016
C 0.9236 0.4008 2.7954
C 0.3553 1.0685 3.8926
C -0.6139 2.0817 3.7035
O -1.2336 2.7072 4.7374
C -1.0550 2.3963 6.0683
C -0.9675 2.4467 2.4043
C -0.3966 1.7920 1.3181
C 0.6635 0.4447 -1.6624
C -0.6817 0.5725 -2.0461
C -1.0155 0.9612 -3.3360
C -0.0068 1.2488 -4.2702
O -0.3097 1.5835 -5.5567
C -1.5806 1.5430 -6.1130
C 1.3485 1.1724 -3.8605
C 1.6939 0.7630 -2.5480
Pd 3.5427 -0.0555 -0.0084
P 6.0027 -0.0555 -0.0084
N 6.8739 -1.5750 -0.2967
C 8.3204 -1.4729 -0.3142
C 8.7323 -0.0465 -0.0027
C 10.2594 0.0301 0.0115
C 8.1456 0.8723 -1.1594
N 6.6813 0.7526 -1.3918
N 6.6714 0.0962 1.5905
C 8.1372 0.3165 1.4287
H -1.7247 -0.9052 0.4059
H -2.6829 -3.0501 0.9472
H -2.7977 -6.5872 1.9682
H -3.2890 -5.2850 0.8206
H -2.8909 -4.8822 2.5469
H 1.2405 -4.8686 0.8734
H 2.2048 -2.6729 0.3221
H 1.6515 -0.3808 2.9590
H 0.6605 0.7805 4.8871
H -1.7192 3.0291 6.6912
H -0.0009 2.5836 6.3586
H -1.3167 1.3303 6.2470
H -1.7023 3.2259 2.2280
H -0.7066 2.0887 0.3236
H -1.4892 0.3743 -1.3587
H -2.0662 1.0294 -3.5953
H -1.5362 1.8289 -7.1840
H -2.2618 2.2487 -5.5910
H -1.9977 0.5121 -6.0493
H 2.1275 1.4173 -4.5689
H 2.7462 0.6761 -2.1697
H 6.5212 -1.9915 -1.1898
H 8.7052 -1.7931 -1.3096
H 8.7186 -2.1817 0.4439
H 10.6611 -0.2873 -0.9764
H 10.6637 -0.6613 0.7830
H 10.5958 1.0618 0.2291
H 8.6541 0.6296 -2.1196
H 8.3864 1.9315 -0.9298
H 6.4384 0.2393 -2.2684
H 6.4379 -0.7461 2.1636
H 8.6525 -0.2881 2.2081
H 8.3653 1.3812 1.6457
