63
 
P 0.9563 -0.0882 -0.0175
C 0.1975 0.8335 -1.4433
C 0.3389 2.3741 -1.2416
C 1.8117 2.8369 -1.1747
C 2.5981 2.4031 -2.4224
C 2.4542 0.8925 -2.7009
C 0.9571 0.4928 -2.7643
C 0.3542 -1.8628 -0.4591
C 0.7500 -3.3513 -0.9170
C 1.6186 -4.2156 0.0561
C 1.2187 -4.0813 1.5362
C 1.0003 -2.6207 1.8408
C -0.1832 -2.1896 0.9231
C 0.4455 0.6973 1.6485
C -0.8957 0.8065 2.2936
C -2.2960 0.3694 1.8227
C -0.9975 1.3698 3.5846
C 0.1026 1.8764 4.2420
C 1.3618 1.7828 3.6581
C 1.5434 1.1711 2.3986
Pd 3.4163 -0.0882 -0.0175
N 5.5163 -0.0882 -0.0175
C 5.9826 0.2136 -1.3773
C 5.9929 0.8119 1.0372
C 5.9477 -1.4629 0.2919
H -0.8852 0.6051 -1.5213
H -0.1850 2.6951 -0.3157
H -0.1570 2.9012 -2.0900
H 2.2871 2.4108 -0.2704
H 1.8565 3.9476 -1.0834
H 3.6709 2.6756 -2.2992
H 2.2120 2.9611 -3.3030
H 2.9781 0.2693 -1.9487
H 2.9609 0.6627 -3.6617
H 0.8855 -0.5861 -3.0001
H 0.4942 1.0551 -3.6072
H -0.4357 -1.6375 -1.1973
H 1.1070 -3.4737 -1.9561
H -0.2366 -3.8951 -0.9287
H 2.6667 -3.8943 -0.0538
H 1.5459 -5.3020 -0.2020
H 1.9947 -4.5306 2.1946
H 0.2568 -4.5954 1.7670
H 1.9570 -2.0595 1.6579
H 0.7527 -2.4851 2.9098
H -0.7291 -1.3868 1.3384
H -1.0190 -2.9048 0.8835
H -2.3926 -0.0418 0.8034
H -2.9900 1.2374 1.8977
H -2.7306 -0.3916 2.5292
H -1.9584 1.4328 4.1006
H -0.0362 2.3372 5.2173
H 2.1990 2.1851 4.2094
H 2.5602 1.0560 1.9802
H 5.6283 1.2261 -1.6653
H 5.5623 -0.5038 -2.1146
H 7.0942 0.2137 -1.4310
H 5.6306 1.8408 0.8231
H 7.1046 0.8373 1.0715
H 5.5828 0.5153 2.0258
H 5.5500 -2.1810 -0.4576
H 5.5653 -1.7775 1.2860
H 7.0606 -1.5375 0.3017
