28
 
P 0.9321 0.0469 -0.0565
C 0.0047 -1.4597 0.3473
C 0.4419 1.1605 1.2880
C 0.4414 0.3385 -1.7777
Pd 3.3921 0.0469 -0.0565
N 5.4921 0.0469 -0.0565
C 6.1369 -0.4709 1.0249
C 7.5332 -0.3756 1.1319
C 8.2601 -0.8884 2.3407
C 8.2456 0.2443 0.0986
C 7.5656 0.7571 -1.0077
C 6.1728 0.6548 -1.0647
H -1.0899 -1.3482 0.3174
H 0.3411 -1.7931 1.3563
H 0.3413 -2.2530 -0.3597
H -0.6695 1.2137 1.3053
H 0.8246 2.1777 1.0610
H 0.8182 0.8152 2.2683
H -0.6699 0.3760 -1.8195
H 0.8181 -0.4508 -2.4538
H 0.8238 1.3331 -2.0901
H 5.5551 -0.9247 1.8169
H 7.5661 -1.3654 3.0650
H 8.7605 -0.0372 2.8505
H 9.0290 -1.6309 2.0416
H 9.3231 0.3403 0.1579
H 8.1125 1.2493 -1.8012
H 5.6324 1.0813 -1.8988
