70
 
P 0.9746 -0.0636 -0.0729
C -0.1210 -1.6192 0.0246
C 0.0259 -2.9436 0.8830
C -1.1567 -3.0791 1.9231
C -2.5303 -2.8326 1.2627
C -2.5709 -1.5380 0.4192
C -1.4752 -1.5763 -0.6585
C 0.4713 0.8426 1.5395
C 0.8546 0.1038 2.8464
C 2.3732 0.0539 2.9981
C 2.9297 1.4739 3.0350
C 2.5213 2.2581 1.7828
C 1.0044 2.2734 1.6554
C 0.5790 0.7837 -1.7125
C 0.9480 0.3224 -3.0162
C 1.7105 -0.9307 -3.2703
C 0.5970 1.0659 -4.1721
C -0.1032 2.2616 -4.0798
C -0.4799 2.7298 -2.8329
C -0.1563 2.0028 -1.6763
Pd 3.4346 -0.0636 -0.0729
N 5.5346 -0.0636 -0.0729
C 6.1756 -1.1434 0.4542
C 5.3863 -2.2836 1.0145
C 7.5732 -1.1884 0.4728
C 8.3056 -0.1174 -0.0509
C 9.8063 -0.1451 -0.0433
C 7.6217 0.9844 -0.5840
C 6.2167 0.9945 -0.5868
C 5.4491 2.1500 -1.1450
H -0.3199 -1.1652 0.9417
H 1.0021 -3.0236 1.4170
H -0.0399 -3.8269 0.2083
H -1.0612 -2.3187 2.7197
H -1.1447 -4.0583 2.4509
H -3.3100 -2.7673 2.0536
H -2.7650 -3.6872 0.5998
H -2.4072 -0.6444 1.0678
H -3.5552 -1.4236 -0.0645
H -1.5387 -0.7075 -1.3332
H -1.5914 -2.4955 -1.2796
H -0.6418 0.9237 1.5131
H 0.4617 -0.9149 2.9190
H 0.3969 0.6449 3.7116
H 2.8421 -0.4910 2.1432
H 2.6025 -0.4549 3.9622
H 4.0323 1.4254 3.1118
H 2.5263 1.9987 3.9310
H 2.9576 1.8047 0.8738
H 2.8827 3.3006 1.8647
H 0.7115 2.9048 0.8097
H 0.5514 2.7462 2.5595
H 1.9822 -1.4498 -2.3363
H 2.6350 -0.6750 -3.8339
H 1.0855 -1.5987 -3.9025
H 0.8727 0.7219 -5.1638
H -0.3587 2.8222 -4.9761
H -1.0318 3.6625 -2.7684
H -0.5132 2.4218 -0.7592
H 4.2963 -2.0929 0.9279
H 5.6398 -2.4208 2.0870
H 5.6332 -3.2147 0.4616
H 8.0807 -2.0499 0.8913
H 10.1947 -1.0822 0.4112
H 10.1946 0.7133 0.5436
H 10.1875 -0.0798 -1.0839
H 8.1788 1.8198 -0.9911
H 6.1284 2.9445 -1.5223
H 4.8020 2.5786 -0.3528
H 4.8100 1.8012 -1.9823
