65
 
P 1.0847 0.0526 -0.0081
C -0.0049 -0.5382 1.5509
C 0.1397 -2.0402 2.0640
C 1.4771 -2.3535 2.7761
C 1.6589 -1.4454 3.9908
C 1.5262 0.0257 3.5585
C 0.1634 0.2850 2.8684
C 0.6946 1.9155 -0.3581
C 1.4427 2.2410 -1.6156
C 0.7279 1.6434 -2.8541
C -0.5008 2.4833 -3.1179
C -1.4193 2.4474 -1.8856
C -0.6691 2.6965 -0.5551
C 0.7669 -1.2801 -1.2450
C -0.5254 -1.6073 -1.7686
C -1.8140 -0.9954 -1.3296
C -0.6498 -2.5611 -2.7904
C 0.4623 -3.2237 -3.2878
C 1.7177 -2.9588 -2.7531
C 1.8660 -2.0047 -1.7402
Pd 3.5447 0.0526 -0.0081
N 5.6447 0.0526 -0.0081
C 6.3558 0.3004 -1.1517
O 5.7185 0.5877 -2.3053
C 4.3552 0.6860 -2.3366
C 7.7510 0.2177 -1.1433
C 8.4064 -0.1548 0.0294
C 7.6665 -0.4268 1.1801
C 6.2740 -0.3104 1.1423
H -1.0682 -0.4249 1.3189
H -0.0633 -2.8117 1.2993
H -0.6479 -2.2125 2.8474
H 2.3242 -2.2134 2.0778
H 1.4924 -3.4099 3.1407
H 2.6529 -1.6389 4.4577
H 0.8892 -1.6942 4.7619
H 2.3447 0.2740 2.8538
H 1.6218 0.6532 4.4721
H -0.0425 1.3569 2.6953
H -0.6201 -0.0383 3.6066
H 1.1484 2.4192 0.5244
H 2.3558 1.8200 -1.3879
H 1.6311 3.3268 -1.7562
H 0.3811 0.6151 -2.7054
H 1.3748 1.6285 -3.7509
H -1.0438 2.0964 -4.0091
H -0.1518 3.5137 -3.3411
H -1.8786 1.4768 -1.8195
H -2.2468 3.1745 -2.0386
H -1.3558 2.6278 0.3107
H -0.3841 3.7794 -0.6189
H -1.6800 -0.2291 -0.5700
H -2.4904 -1.7790 -0.9288
H -2.3120 -0.5350 -2.2028
H -1.6243 -2.7828 -3.2124
H 0.3418 -3.9510 -4.0806
H 2.5797 -3.4912 -3.1330
H 2.8507 -1.8408 -1.3489
H 4.0200 1.0216 -3.3431
H 4.1484 1.3792 -1.5601
H 3.8735 -0.2433 -2.0871
H 8.3199 0.4163 -2.0429
H 9.4845 -0.2484 0.0409
H 8.1672 -0.7370 2.0879
H 5.6879 -0.5376 2.0229
