33
 
P 1.2750 0.0000 0.0000
N 0.3843 1.4954 -0.3202
C -1.0545 1.3840 -0.3188
C -1.4568 -0.0435 0.0018
C -2.9841 -0.1046 0.0163
C -0.8644 -0.9734 -1.1411
N 0.6091 -0.8874 -1.3430
N 0.6047 -0.2485 1.5863
C -0.8683 -0.4084 1.4322
Pd 3.7350 0.0003 -0.0005
N 5.8350 0.0006 -0.0009
C 6.4784 0.4495 -1.1117
C 7.8709 0.3777 -1.1945
C 8.5900 -0.1585 -0.1247
C 7.9120 -0.6055 1.0124
C 6.5165 -0.5180 1.0556
H 0.7297 1.8933 -1.2253
H -1.4494 1.7039 -1.3108
H -1.4438 2.0977 0.4397
H -3.3833 0.2129 -0.9728
H -3.3797 0.5978 0.7839
H -3.3309 -1.1298 0.2423
H -1.3533 -0.7211 -2.1095
H -1.1282 -2.0263 -0.9129
H 0.8628 -0.4043 -2.2348
H 0.8598 0.5579 2.2001
H -1.3586 0.2259 2.2047
H -1.1344 -1.4603 1.6641
H 5.9034 0.8414 -1.9404
H 8.3848 0.7201 -2.0836
H 9.6685 -0.2339 -0.1805
H 8.4613 -1.0287 1.8432
H 5.9745 -0.8813 1.9184
