59
 
P 1.0905 0.0129 -0.0406
C 0.5517 0.5854 1.6187
C -0.3409 -0.1215 2.4560
C -0.7947 0.4324 3.6515
C -0.3937 1.7114 4.0285
C 0.4844 2.4314 3.2175
C 0.9611 1.8708 2.0252
C 0.6563 0.9917 -1.4986
C -0.0783 2.1837 -1.3299
C -0.4581 2.9508 -2.4368
C -0.1033 2.5405 -3.7220
C 0.6425 1.3704 -3.8984
C 1.0225 0.5966 -2.7914
C 0.2069 -1.6010 -0.1370
C 0.7198 -2.6513 0.8588
C 1.6163 -2.3415 1.9006
C 2.0373 -3.2998 2.8168
C 1.6206 -4.6070 2.6936
C 0.7406 -4.9549 1.6702
C 0.2808 -3.9839 0.7634
Pd 3.5505 0.0129 -0.0406
C 5.7005 0.0129 -0.0406
N 6.4869 -0.6587 0.7911
C 5.9994 -1.5095 1.8408
C 4.4669 -1.4851 1.8296
C 7.7547 -0.3706 0.4395
C 7.7004 0.5026 -0.6371
N 6.3986 0.7281 -0.9215
C 5.8097 1.5685 -1.9597
C 4.2581 1.5254 -1.9177
H -0.7255 -1.0921 2.2072
H -1.4800 -0.1288 4.2729
H -0.7755 2.1460 4.9431
H 0.7802 3.4319 3.5072
H 1.6218 2.4618 1.4019
H -0.3702 2.5248 -0.3453
H -1.0322 3.8607 -2.3003
H -0.4062 3.1300 -4.5797
H 0.9203 1.0620 -4.8971
H 1.5953 -0.3064 -2.9447
H 0.4686 -1.9953 -1.1462
H -0.8922 -1.4801 -0.0980
H 1.9932 -1.3525 2.0411
H 2.6917 -3.0354 3.6345
H 1.9828 -5.3353 3.4054
H 0.4104 -5.9784 1.5944
H -0.4119 -4.2755 -0.0126
H 6.3819 -1.1417 2.8188
H 6.3751 -2.5455 1.6797
H 4.0321 -0.4879 1.9687
H 4.2517 -2.1379 2.6733
H 4.0240 -1.8373 0.8877
H 8.6406 -0.7607 0.9253
H 8.5432 0.9325 -1.1622
H 6.1654 1.2109 -2.9500
H 6.1595 2.6137 -1.8153
H 3.8789 0.5031 -2.0722
H 3.8647 2.1717 -2.7259
H 3.8617 1.8890 -0.9561
