85
 
P 1.0046 -0.0381 -0.0923
C 0.0673 -1.2577 0.9801
C -1.1019 -0.9683 1.7081
C -1.5253 -1.8245 2.7589
C -0.7621 -2.9384 3.1362
C 0.3601 -3.2587 2.4047
C 0.7198 -2.4554 1.3319
C 0.4397 1.5842 0.6174
C 0.6655 1.8831 1.9823
C 0.0704 3.0020 2.5909
C -0.7318 3.8661 1.8494
C -0.9047 3.6404 0.4829
C -0.3299 2.5071 -0.1329
C 0.4958 -0.4138 -1.8203
C 1.3136 -0.1777 -2.9649
C 2.7030 0.3938 -2.9151
C 0.8055 -0.4468 -4.2547
C -0.4909 -0.9178 -4.4356
C -1.3011 -1.1451 -3.3297
C -0.8165 -0.8979 -2.0383
Pd 3.4646 -0.0381 -0.0923
C 5.6146 -0.0381 -0.0923
N 6.3688 1.1210 -0.2011
C 5.9793 2.5446 -0.2004
C 4.8297 2.9496 0.5230
C 4.0664 2.0190 1.3749
C 4.4192 4.2792 0.5824
C 5.1452 5.2794 -0.0330
C 4.6834 6.7001 0.1017
C 6.3084 4.9448 -0.7287
C 6.7476 3.6009 -0.8217
C 8.0289 3.3818 -1.5850
C 7.6392 0.6965 -0.1292
C 7.6670 -0.6418 0.0192
N 6.4160 -1.1533 0.0143
C 6.1136 -2.6042 -0.0126
C 4.9526 -3.1740 0.5363
C 3.9630 -2.3415 1.2326
C 4.6615 -4.5654 0.3756
C 5.5266 -5.4059 -0.3361
C 5.2605 -6.8693 -0.5635
C 6.6680 -4.8627 -0.8872
C 6.9567 -3.5032 -0.7422
C 8.1200 -3.0104 -1.4992
H -1.6661 -0.0769 1.4963
H -2.4184 -1.6083 3.3224
H -1.0301 -3.5654 3.9808
H 0.9744 -4.1195 2.6693
H 1.5306 -2.8034 0.8161
H 1.2637 1.2325 2.6021
H 0.2069 3.1895 3.6499
H -1.2187 4.7079 2.3378
H -1.5153 4.3358 -0.0845
H -0.5251 2.3460 -1.1831
H 3.0373 0.7314 -1.9049
H 2.7267 1.2908 -3.5701
H 3.4050 -0.3564 -3.3457
H 1.4110 -0.2655 -5.1362
H -0.8683 -1.0942 -5.4378
H -2.3123 -1.5058 -3.4798
H -1.4867 -1.0812 -1.2105
H 4.7318 1.2195 1.7341
H 3.1284 1.7844 0.8491
H 3.8450 2.4821 2.3543
H 3.5386 4.5410 1.1589
H 3.7495 6.7648 0.7050
H 4.4730 7.1197 -0.9013
H 5.4592 7.3002 0.6216
H 6.8845 5.7453 -1.1833
H 8.4309 4.3192 -2.0231
H 7.8626 2.6561 -2.4067
H 8.8391 3.0760 -0.9070
H 8.5361 1.2671 -0.1147
H 8.5964 -1.1607 0.1225
H 4.1428 -1.2965 1.4237
H 3.7130 -2.8807 2.1932
H 3.2741 -2.2980 0.4285
H 3.7535 -4.9977 0.7878
H 4.3159 -7.2011 -0.0887
H 6.1044 -7.4645 -0.1511
H 5.1989 -7.0712 -1.6580
H 7.3318 -5.5037 -1.4614
H 8.3896 -3.6066 -2.3866
H 8.9687 -2.9573 -0.7878
H 7.7642 -2.0847 -1.9850
