60
 
P 1.0258 -0.0896 -0.0363
C 0.8028 -1.7497 -0.7287
C 0.0203 -1.9920 -1.8688
C -0.1323 -3.2955 -2.3581
C 0.4970 -4.3669 -1.7194
C 1.2684 -4.1398 -0.5784
C 1.4181 -2.8385 -0.0816
C 0.4817 0.4253 1.6074
C -0.1740 -0.5602 2.3758
C -0.6876 -0.2642 3.6372
C -0.5552 1.0244 4.1492
C 0.1042 2.0094 3.4021
C 0.6310 1.7129 2.1343
C 0.1162 1.1925 -0.9656
C -1.3640 1.0963 -1.1024
C -2.1378 0.1115 -0.4747
C -3.5075 0.0491 -0.7088
C -4.1152 0.9684 -1.5676
C -3.3525 1.9623 -2.1855
C -1.9813 2.0276 -1.9524
Pd 3.4858 -0.0896 -0.0363
N 5.5858 -0.0896 -0.0363
C 6.2081 1.0372 0.4043
C 7.6009 1.1067 0.4444
C 8.3478 0.0037 0.0379
C 7.6914 -1.1491 -0.4104
C 8.4112 -2.2665 -0.8167
C 7.7400 -3.3968 -1.2717
C 6.3245 -3.4377 -1.3351
C 5.6057 -4.6404 -1.8573
O 4.3853 -4.6207 -1.9089
C 6.2958 -5.8900 -2.3585
C 5.5912 -2.2981 -0.9022
C 6.2802 -1.1730 -0.4479
H -0.4804 -1.1855 -2.3803
H -0.7396 -3.4762 -3.2352
H 0.3837 -5.3726 -2.1068
H 1.7485 -4.9745 -0.0809
H 2.0148 -2.6853 0.8095
H -0.3020 -1.5677 1.9949
H -1.1957 -1.0322 4.2108
H -0.9663 1.2559 5.1238
H 0.1977 3.0067 3.8065
H 1.1265 2.4858 1.5674
H 0.5249 1.1028 -1.9980
H 0.4144 2.1975 -0.6041
H -1.6968 -0.6229 0.1766
H -4.0902 -0.7240 -0.2299
H -5.1757 0.9064 -1.7572
H -3.8171 2.6751 -2.8533
H -1.3926 2.7931 -2.4500
H 5.6141 1.8835 0.7232
H 8.0963 2.0046 0.7905
H 9.4301 0.0509 0.0714
H 9.4953 -2.2660 -0.7863
H 8.3673 -4.2167 -1.5719
H 7.3959 -5.8848 -2.2895
H 6.0452 -6.0418 -3.4287
H 5.9446 -6.7659 -1.7761
H 4.4869 -2.2325 -0.9067
