91
 
P 1.0493 -0.0050 -0.0869
C 0.2598 -0.1010 1.6920
C 0.6576 1.1147 2.5725
C -0.0811 2.3784 2.1161
C -1.6149 2.2059 2.0712
C -2.0514 0.9001 1.3876
C -1.2940 -0.2728 1.9202
C 0.6315 1.5846 -1.2489
C 1.1155 1.5690 -2.7327
C 0.1908 0.6665 -3.6146
C -1.3030 0.9481 -3.6336
C -1.7778 1.1194 -2.1920
C -0.8491 2.1177 -1.4497
C 0.6625 -1.7722 -0.6252
C 0.9958 -2.2955 -1.9353
C 1.9266 -1.6570 -2.9337
C 0.4182 -3.4983 -2.3833
C -0.4170 -4.2419 -1.5651
C -0.6310 -3.8335 -0.2649
C -0.0895 -2.6436 0.1940
Pd 3.5093 -0.0050 -0.0869
C 5.6593 -0.0050 -0.0869
N 6.4817 0.9000 -0.6638
C 5.9342 2.1200 -1.2406
C 6.4375 2.7707 -2.5673
C 5.3835 3.8767 -2.8943
C 5.2219 4.8911 -1.7335
C 4.9616 4.1981 -0.3928
C 6.0310 3.1658 -0.1348
C 7.7476 0.5143 -0.3577
C 7.6821 -0.6890 0.3594
N 6.3733 -0.9907 0.5243
C 5.6055 -2.2044 0.8129
C 5.5174 -2.8021 -0.6342
C 6.5544 -3.9188 -0.8420
C 6.1432 -5.0915 0.0268
C 6.2445 -4.6837 1.5010
C 5.4464 -3.4104 1.8060
H 0.7747 -0.9507 2.1915
H 1.7573 1.2791 2.5534
H 0.3913 0.9126 3.6398
H 0.2813 2.6027 1.1161
H 0.1784 3.2443 2.7616
H -2.0623 3.0744 1.5389
H -2.0278 2.1961 3.1001
H -1.8317 0.8216 0.3456
H -3.1496 0.7683 1.4664
H -1.7738 -1.1445 1.4533
H -1.5073 -0.3618 3.0115
H 1.1965 2.4153 -0.7879
H 2.1942 1.3248 -2.7736
H 1.0841 2.5978 -3.1703
H 0.1113 -0.2604 -3.0928
H 0.5762 0.5691 -4.6550
H -1.8350 0.0684 -4.0860
H -1.5437 1.8291 -4.2599
H -1.7537 0.1326 -1.6800
H -2.8359 1.4610 -2.2213
H -1.2782 2.5095 -0.5330
H -0.8466 3.0475 -2.0674
H 2.2872 -0.7102 -2.5358
H 1.4278 -1.5576 -3.9313
H 2.8178 -2.2626 -3.1399
H 0.6013 -3.8535 -3.3909
H -0.8734 -5.1527 -1.9252
H -1.2442 -4.4249 0.4017
H -0.3127 -2.4593 1.2066
H 4.8671 1.8439 -1.4442
H 6.4806 2.0602 -3.4214
H 7.4513 3.2329 -2.4665
H 4.4025 3.3743 -3.0532
H 5.6201 4.4266 -3.8301
H 4.3709 5.5769 -1.9332
H 6.1512 5.4898 -1.6412
H 3.9828 3.6646 -0.4050
H 4.9491 4.9269 0.4412
H 5.8278 2.6969 0.8506
H 7.0584 3.6053 -0.0903
H 8.6476 1.0475 -0.6424
H 8.5184 -1.3002 0.6762
H 4.7909 -1.6508 1.3482
H 5.7614 -2.0629 -1.4366
H 4.4972 -3.1514 -0.8496
H 7.5902 -3.5877 -0.5839
H 6.5590 -4.2340 -1.9072
H 6.7949 -5.9687 -0.1662
H 5.0995 -5.3752 -0.2493
H 7.2988 -4.5052 1.7717
H 5.8419 -5.5242 2.1150
H 5.4925 -3.1714 2.8883
H 4.3789 -3.7212 1.6237
