84
 
P 0.9914 0.0912 -0.0402
C 0.1544 1.8033 0.0597
C 0.7634 2.2888 1.3588
C 2.2780 2.6316 1.0992
C 2.2687 4.0371 0.5267
C 1.5855 3.9993 -0.8466
C 0.2653 3.1414 -0.8694
C 0.4601 -0.8012 -1.6315
C 1.0458 -2.2301 -1.8116
C 0.3666 -3.2893 -0.9144
C -1.1260 -3.4180 -1.2662
C -1.7907 -2.0637 -1.0973
C -1.0881 -0.9197 -1.8747
C 0.3309 -0.7237 1.6905
C 1.1896 -1.2134 2.7384
C 2.6306 -1.2095 2.6408
C 0.7346 -1.7861 3.9573
C -0.5965 -2.0076 4.1970
C -1.4997 -1.6223 3.2285
C -1.0687 -0.9517 2.0406
Pd 3.4514 0.0912 -0.0402
P 5.9114 0.0912 -0.0402
C 6.5955 0.2996 1.6476
C 5.6137 0.3030 2.6499
C 5.9121 0.3880 4.0093
C 7.2368 0.5042 4.4024
C 8.2477 0.5019 3.4295
C 7.9367 0.3857 2.0522
C 6.4589 -1.4897 -0.7622
C 5.5366 -2.4235 -1.2663
C 5.9873 -3.6529 -1.7878
C 7.3532 -3.9564 -1.8080
C 8.2759 -3.0241 -1.3347
C 7.8344 -1.7955 -0.8245
C 6.2751 1.7223 -0.8032
C 7.0091 1.7515 -2.0169
C 7.2591 2.9680 -2.6658
C 6.7862 4.1529 -2.1148
C 6.0657 4.1071 -0.9162
O 5.6482 5.1443 -0.4331
N 5.8215 2.8996 -0.2870
H -0.9269 1.5694 0.0130
H 0.6500 1.5525 2.1477
H 0.1904 3.1526 1.7487
H 2.8426 1.9422 0.4266
H 2.8669 2.5944 2.0229
H 3.2892 4.4624 0.4392
H 1.7249 4.6806 1.2571
H 2.3048 3.5797 -1.5721
H 1.3952 5.0642 -1.1560
H -0.0865 3.0722 -1.9245
H -0.4749 3.8384 -0.4011
H 0.8712 -0.1574 -2.4387
H 2.1395 -2.2157 -1.6479
H 0.8621 -2.5561 -2.8632
H 0.4909 -3.0074 0.1520
H 0.8371 -4.2848 -1.0588
H -1.6135 -4.1520 -0.5778
H -1.2729 -3.7845 -2.3035
H -1.7150 -1.9098 -0.0553
H -2.8765 -2.1170 -1.3351
H -1.5989 0.0453 -1.6797
H -1.2538 -1.1567 -2.9491
H 2.9016 -0.7657 1.7001
H 2.9654 -2.2671 2.6513
H 3.0333 -0.6619 3.5187
H 1.4335 -2.0958 4.7333
H -0.9125 -2.4844 5.1294
H -2.5458 -1.8497 3.4293
H -1.9030 -0.6604 1.4345
H 4.6001 0.2409 2.3582
H 5.1176 0.3701 4.7525
H 7.4715 0.5948 5.4587
H 9.2733 0.5851 3.7569
H 8.7349 0.3621 1.3325
H 4.4755 -2.1961 -1.2553
H 5.2838 -4.3812 -2.1722
H 7.7000 -4.9110 -2.1926
H 9.3347 -3.2592 -1.3580
H 8.5742 -1.0957 -0.4661
H 7.3804 0.8448 -2.4804
H 7.8131 3.0004 -3.6008
H 6.9761 5.0974 -2.6199
H 5.2697 2.8862 0.5961
