56
 
P 1.0808 -0.0018 0.0588
C 0.2197 0.9007 -1.3394
C -1.2940 0.7652 -1.2348
C 0.6267 2.4085 -1.3502
C 0.7112 0.3597 -2.6997
C 0.6729 -1.7416 -0.3728
C 1.5383 -2.5399 -1.1289
C 1.2626 -3.9103 -1.3083
C 0.1499 -4.5044 -0.6994
C -0.7143 -3.7284 0.0609
C -0.4705 -2.3620 0.2044
C 0.5843 0.7823 1.6343
C -0.1301 -0.0025 2.5672
C -0.6250 0.5293 3.7511
C -0.3843 1.8600 4.0589
C 0.3744 2.6468 3.1854
C 0.8600 2.1135 1.9779
Pd 3.5408 -0.0018 0.0588
N 5.6408 -0.0018 0.0588
C 6.3561 0.9219 0.8068
N 5.7014 1.9787 1.5841
C 4.2610 2.2173 1.6117
C 6.4342 3.0297 2.2975
C 7.7714 0.8800 0.6976
C 8.3929 -0.0258 -0.1546
C 7.6318 -0.8991 -0.9149
C 6.2460 -0.8692 -0.7968
H -1.6513 1.1881 -0.2732
H -1.5765 -0.3028 -1.2984
H -1.7855 1.3084 -2.0708
H 0.2643 2.9829 -0.4800
H 0.2109 2.9299 -2.2423
H 1.7353 2.5262 -1.4109
H 0.4961 -0.7153 -2.8230
H 1.8075 0.5245 -2.8188
H 0.2060 0.8972 -3.5335
H 2.4266 -2.0999 -1.5630
H 1.9238 -4.5263 -1.8987
H -0.0463 -5.5655 -0.8086
H -1.5709 -4.1862 0.5499
H -1.1942 -1.8261 0.7916
H -0.3258 -1.0390 2.4195
H -1.1973 -0.1008 4.4241
H -0.7768 2.2685 4.9810
H 0.5763 3.6752 3.4453
H 1.4385 2.7451 1.3268
H 3.6793 1.8218 0.8061
H 4.0769 3.2772 1.3288
H 3.8625 2.0928 2.6439
H 7.5271 2.9772 2.2682
H 6.1385 3.0460 3.3666
H 6.1798 4.0193 1.8524
H 8.4405 1.5413 1.2121
H 9.4725 -0.0263 -0.2426
H 8.1152 -1.5861 -1.5967
H 5.6411 -1.5367 -1.3952
