27
 
P 1.2750 0.0000 0.0000
O 0.4351 1.4763 -0.3148
C -0.9604 1.3722 -0.2947
C -1.4016 -0.0462 0.0097
C -2.9321 -0.1083 0.0228
C -0.7797 -0.9552 -1.1190
O 0.6257 -0.7880 -1.3513
O 0.6256 -0.1680 1.5554
C -0.7806 -0.4128 1.4121
Pd 3.7350 0.0003 -0.0005
N 5.8350 0.0006 -0.0009
C 6.6659 0.6175 0.8538
O 7.9221 0.3798 0.5391
C 7.9229 -0.3969 -0.5250
C 6.6151 -0.6454 -0.8767
H -1.3407 1.7001 -1.2871
H -1.3459 2.0785 0.4735
H -3.3318 0.2146 -0.9646
H -3.3319 0.5909 0.7911
H -3.2836 -1.1338 0.2428
H -1.2854 -0.6974 -2.0758
H -0.9968 -2.0211 -0.8999
H -1.2835 0.2167 2.1789
H -1.0024 -1.4740 1.6499
H 6.3448 1.2253 1.6885
H 8.8068 -0.7697 -1.0253
H 6.2561 -1.2475 -1.7008
