40
 
P 0.9261 -0.0538 0.0406
O 0.3641 1.5603 0.0187
C 0.8407 2.3439 1.0660
C 0.3925 3.7767 0.7651
O 0.5845 -1.2515 -1.1354
C -0.8205 -1.2512 -1.3400
C -1.2261 -2.2938 -2.3623
C -0.0008 -0.7619 1.4338
C -1.2241 -0.2869 1.9055
C -1.9115 -1.0039 2.8974
C -1.3781 -2.1860 3.4292
C -0.1467 -2.6566 2.9799
C 0.5358 -1.9528 1.9848
Pd 3.3861 -0.0538 0.0406
N 5.4861 -0.0538 0.0406
C 6.1536 -0.5809 -1.0162
Cl 5.2371 -1.1455 -2.3970
C 7.5510 -0.6605 -0.9904
C 8.2374 -0.2163 0.1441
C 7.5271 0.3217 1.2198
C 6.1356 0.4094 1.1409
H 1.9504 2.3184 1.1381
H 0.3576 2.0270 2.0105
H 0.8892 4.1596 -0.1546
H 0.6322 4.4496 1.6116
H -0.7076 3.8056 0.5899
H -1.1667 -0.2554 -1.6947
H -1.3781 -1.5510 -0.4280
H -0.7289 -2.0957 -3.3310
H -2.3297 -2.2451 -2.4989
H -0.9646 -3.3104 -1.9972
H -1.6595 0.6011 1.4780
H -2.8725 -0.6547 3.2410
H -1.9218 -2.7443 4.1818
H 0.2666 -3.5753 3.3880
H 1.4825 -2.3564 1.6352
H 8.0978 -1.0737 -1.8281
H 9.3161 -0.2937 0.1933
H 8.0464 0.6535 2.1099
H 5.5651 0.7996 1.9737
