76
 
P -1.3500 0.0010 0.7980
N -0.9075 -1.3353 -0.3286
C -2.0177 -1.6984 -1.2205
C 0.3809 -1.5896 -0.9879
C 1.5144 -1.0397 -0.2386
N 1.7399 0.4416 -0.3460
C 0.8629 1.6234 -0.6862
C -0.4841 1.4079 -1.3861
N -1.6615 1.1630 -0.4913
C -2.2092 2.3821 0.1072
N 0.0885 -0.1069 1.9813
C -0.1627 -0.7664 3.2737
C 1.3493 0.7589 2.0376
C 2.4070 0.7567 0.8845
Pd -3.3226 0.0026 2.2679
C -5.0466 0.0040 3.5525
N -5.6854 1.1118 3.9975
C -5.2947 2.4821 3.6679
C -4.8996 3.2867 4.9158
C -3.7447 2.6645 5.7094
C -2.4672 2.5609 4.8700
C -6.7075 0.6525 4.7696
C -6.6827 -0.7203 4.7828
C -7.6175 -1.4758 5.5056
C -8.6050 -0.7936 6.2250
C -8.6416 0.6132 6.2186
C -7.6908 1.3553 5.4869
N -5.6606 -1.1686 4.0265
C -5.3553 -2.6486 3.8886
C -4.3314 -3.1833 4.9045
C -3.6710 -2.2054 5.6284
C -2.4720 -2.4691 6.2389
C -1.9792 -3.7625 6.3211
C -2.7250 -4.8259 5.8063
C -3.8863 -4.5464 5.0417
H -2.9968 -1.5977 -0.7094
H -1.9120 -2.7589 -1.5371
H -2.0207 -1.0604 -2.1321
H 0.4472 -1.3148 -2.0569
H 0.5151 -2.6971 -0.9429
H 2.4599 -1.5577 -0.5076
H 1.4004 -1.4572 0.7851
H 1.5015 2.2772 -1.3237
H 0.6597 2.3191 0.1538
H -0.3726 0.6537 -2.1787
H -0.6840 2.3442 -1.9538
H -2.4361 3.1317 -0.6800
H -1.5207 2.8214 0.8602
H -3.1726 2.1346 0.6035
H -1.1528 -0.5134 3.6942
H 0.5574 -0.4377 4.0647
H 0.0184 -1.8524 3.1594
H 1.0429 1.7979 2.2055
H 2.0300 0.3947 2.8436
H 3.2628 0.0409 1.0284
H 2.9533 1.7291 0.8278
H -6.1278 2.9910 3.1441
H -4.4364 2.4588 2.9598
H -5.7703 3.3850 5.5906
H -4.6084 4.3114 4.5996
H -4.0320 1.6596 6.0872
H -3.5533 3.3133 6.5960
H -2.5978 1.8763 3.9754
H -1.6497 2.1684 5.5110
H -2.1785 3.5821 4.5333
H -7.6006 -2.5571 5.5218
H -9.3425 -1.3556 6.7861
H -9.4123 1.1215 6.7836
H -7.7478 2.4316 5.4987
H -4.8799 -2.8272 2.9034
H -6.2883 -3.2562 3.8872
H -4.0134 -1.1928 5.6427
H -1.9219 -1.6230 6.6055
H -1.0174 -3.9197 6.7872
H -2.3370 -5.8354 5.9455
H -4.3613 -5.3917 4.5459
