33
 
C 1.0240 -0.6530 -0.0550
N -0.1167 -1.1445 0.2208
C -0.3619 -2.5612 0.3063
C -1.1190 -0.1065 0.3415
C -0.2887 1.1881 0.3669
N 0.9811 0.7518 -0.1437
C 2.0451 1.6258 -0.5700
Pd 2.7802 -1.8697 -0.2955
N 4.4956 -3.0582 -0.5304
C 5.6779 -2.4806 -0.8562
O 5.7617 -1.1365 -0.9609
C 4.6791 -0.3024 -0.7696
C 6.7985 -3.2903 -1.0949
C 6.6694 -4.6820 -1.0054
C 5.4372 -5.2459 -0.6703
C 4.3510 -4.4054 -0.4306
H 0.6017 -3.1265 0.1466
H -1.1039 -2.8467 -0.4722
H -0.7898 -2.8003 1.3031
H -1.7485 -0.1884 1.2525
H -1.7496 -0.1438 -0.5745
H -0.1052 1.5119 1.4180
H -0.7626 2.0072 -0.2123
H 1.7237 2.6869 -0.5031
H 2.2903 1.4085 -1.6325
H 2.9332 1.4940 0.0712
H 5.0126 0.7452 -0.8877
H 4.2494 -0.4352 0.2368
H 3.8842 -0.5136 -1.5098
H 7.7522 -2.8539 -1.3612
H 7.5177 -5.3251 -1.2026
H 5.3193 -6.3208 -0.6094
H 3.3806 -4.8210 -0.1907
