63
 
C 0.9010 -0.6430 -0.0020
N -0.4008 -1.1552 0.0657
C -0.9457 -2.5742 0.0810
C -0.1027 -3.7191 0.1353
C 1.2650 -3.6734 0.0304
C -0.4988 -5.0335 0.1800
C -1.8012 -5.3550 0.1066
C -2.1415 -6.8064 0.1169
C -2.7332 -4.3260 -0.0113
C -2.3425 -2.9504 -0.0215
C -3.4658 -1.9829 -0.1926
C -1.1520 -0.0284 0.0373
C -0.3680 1.0870 -0.0270
N 0.9351 0.7488 -0.0450
C 2.0657 1.7339 -0.0459
C 2.0074 3.0705 0.5396
C 0.8640 3.7197 1.2843
C 3.1492 3.9182 0.5009
C 4.3388 3.5165 -0.0938
C 5.5756 4.3486 -0.1514
C 4.4113 2.2808 -0.6500
C 3.3304 1.4195 -0.6257
C 3.6674 0.1397 -1.1480
Pd 2.6584 -1.8814 -0.0135
N 4.3750 -3.0911 -0.0247
C 5.5619 -2.5625 0.3920
C 6.7424 -3.3144 0.3574
C 6.7517 -4.5842 -0.2381
O 7.8898 -5.3124 -0.3868
C 9.1411 -4.8849 0.0094
C 5.5506 -5.0974 -0.7094
C 4.3717 -4.3656 -0.5458
H 1.3519 -2.9672 -0.8024
H 1.6851 -4.4435 -0.5673
H 1.6942 -3.7500 1.0811
H 0.2536 -5.8282 0.2333
H -1.2273 -7.4449 0.2113
H -2.6305 -7.0693 -0.8390
H -2.7845 -7.0111 0.9895
H -3.7688 -4.6110 -0.1031
H -4.4489 -2.4834 -0.2977
H -3.3040 -1.4070 -1.1312
H -3.5405 -1.3563 0.7147
H -2.2089 0.0786 0.0468
H -0.7909 2.0733 -0.0832
H -0.0395 3.1347 1.4629
H 0.5906 4.6563 0.7486
H 1.2110 3.9970 2.3041
H 3.1210 4.9017 0.9551
H 5.4311 5.3323 0.3281
H 5.8532 4.4844 -1.2197
H 6.4036 3.8023 0.3566
H 5.3558 1.9652 -1.0870
H 4.5982 0.0228 -1.7215
H 2.8352 -0.2413 -1.7711
H 3.9920 -0.2359 -0.1270
H 5.5895 -1.5889 0.8575
H 7.6444 -2.8945 0.7757
H 9.9030 -5.6525 -0.2326
H 9.1433 -4.7136 1.1062
H 9.4055 -3.9423 -0.5191
H 5.5232 -6.0525 -1.2273
H 3.5329 -4.8096 -1.0203
