45
 
C 0.9010 -0.6430 -0.0020
N -0.3435 -1.1109 0.0530
C -0.6959 -2.5312 0.0740
C 0.6195 -3.4081 0.0643
C -1.4897 -2.8307 1.3552
C -1.5971 -2.8187 -1.1538
C -1.1434 -0.0194 0.0385
C -0.3351 1.1021 -0.0189
N 0.9511 0.6872 -0.0475
C 2.1872 1.4749 -0.0546
C 2.2063 2.3160 1.2403
C 3.4367 0.5161 -0.1268
C 2.1895 2.4241 -1.2672
Pd 2.6584 -1.8814 -0.0135
N 4.3750 -3.0911 -0.0247
C 5.3237 -2.8556 -0.9702
C 6.3816 -3.7626 -1.1300
Cl 7.4503 -3.6594 -2.5188
C 6.5449 -4.7923 -0.2002
C 5.6092 -4.9548 0.8204
C 4.4739 -4.1397 0.8353
H 1.2148 -3.2626 0.9816
H 1.3024 -3.1842 -0.7587
H 0.3249 -4.4757 -0.0211
H -0.8586 -2.6198 2.2437
H -1.8077 -3.8941 1.3821
H -2.3989 -2.1929 1.4203
H -1.0722 -2.5821 -2.1030
H -2.5188 -2.1893 -1.1219
H -1.9303 -3.8771 -1.1782
H -2.2255 -0.0294 0.0627
H -0.6630 2.1338 -0.0328
H 2.1761 1.6546 2.1327
H 1.3100 2.9773 1.2896
H 3.1056 2.9623 1.2969
H 3.4925 -0.1822 0.7154
H 4.3637 1.1240 -0.1069
H 3.4296 -0.0962 -1.0457
H 1.2999 3.0928 -1.2501
H 2.1699 1.8475 -2.2146
H 3.0941 3.0695 -1.2564
H 5.1558 -2.0820 -1.7092
H 7.3813 -5.4758 -0.2768
H 5.7485 -5.7203 1.5736
H 3.7336 -4.2573 1.6164
