33
 
C 1.0240 -0.6530 -0.0550
N 1.0561 0.6172 -0.1107
C 2.2731 1.3954 -0.2430
C 3.5393 0.5155 -0.3831
C -0.2731 1.1667 0.0645
C -1.1894 -0.0660 -0.0622
N -0.2718 -1.1558 0.1333
C -0.6461 -2.5298 0.3966
C 0.5761 -3.4446 0.5588
Pd 2.7802 -1.8697 -0.2955
C 4.5364 -3.0865 -0.5360
N 5.7724 -2.6141 -0.7825
H 6.0564 -1.6158 -0.8913
C 6.5602 -3.7037 -0.8528
Cl 8.2869 -3.6693 -1.1538
C 5.7815 -4.8235 -0.6479
Cl 6.3140 -6.4942 -0.6385
N 4.5127 -4.4288 -0.4488
H 2.3708 2.0454 0.6547
H 2.1854 2.0505 -1.1359
H 3.6685 -0.1588 0.4766
H 4.4256 1.1774 -0.4356
H 3.4955 -0.0995 -1.2975
H -0.5479 1.9407 -0.6829
H -0.3277 1.5853 1.0944
H -1.5660 -0.1570 -1.1076
H -2.0385 -0.0355 0.6517
H -1.2969 -2.9086 -0.4193
H -1.2334 -2.5475 1.3435
H 1.1357 -3.5216 -0.3883
H 0.2124 -4.4580 0.8397
H 1.2293 -3.0757 1.3762
H 3.6796 -5.0305 -0.2655
