38
 
C 1.0240 -0.6530 -0.0550
N 1.0617 0.6170 -0.0765
C 2.2815 1.3928 -0.2006
C 3.5421 0.5117 -0.3825
C -0.2695 1.1675 0.0819
C -1.1895 -0.0628 -0.0708
N -0.2724 -1.1579 0.0913
C -0.6351 -2.5327 0.3605
C 0.6009 -3.4381 0.5065
Pd 2.7802 -1.8697 -0.2955
N 4.4956 -3.0582 -0.5304
C 4.4162 -4.3707 -0.1886
C 5.5675 -5.1620 -0.1709
C 6.7969 -4.5986 -0.5425
C 8.0626 -5.4023 -0.4798
C 6.8406 -3.2560 -0.9430
C 5.6717 -2.4906 -0.9076
H 2.3905 2.0267 0.7062
H 2.1888 2.0621 -1.0831
H 3.6857 -0.1812 0.4580
H 4.4304 1.1709 -0.4357
H 3.4804 -0.0823 -1.3107
H -0.5275 1.9433 -0.6701
H -0.3389 1.5847 1.1108
H -1.5770 -0.1308 -1.1136
H -2.0295 -0.0499 0.6544
H -1.2967 -2.9160 -0.4440
H -1.2094 -2.5507 1.3163
H 1.1539 -3.5089 -0.4443
H 0.2428 -4.4522 0.7946
H 1.2669 -3.0669 1.3102
H 3.4695 -4.7829 0.1345
H 5.5030 -6.1931 0.1535
H 7.8785 -6.4209 -0.0760
H 8.7802 -4.8933 0.2000
H 8.5177 -5.4905 -1.4871
H 7.7754 -2.7986 -1.2432
H 5.7014 -1.4429 -1.1739
