48
 
C 0.9010 -0.6430 -0.0020
N -0.3677 -1.0947 -0.0017
C -0.7715 -2.4888 0.0040
C 0.4863 -3.3352 0.0043
C -1.6438 -2.8031 1.2276
C -1.1662 -0.0081 -0.0128
C -0.3606 1.1096 -0.0104
N 0.9244 0.6963 0.0030
C 2.1261 1.5066 0.0181
C 2.1219 2.4125 1.2584
C 3.3455 0.5680 0.0081
Pd 2.6584 -1.8814 -0.0135
N 4.3750 -3.0911 -0.0247
C 4.3092 -4.4797 -0.0527
C 3.0605 -5.2360 -0.0800
C 5.4420 -5.2822 -0.0626
C 6.6941 -4.7151 -0.0432
C 7.8995 -5.6027 -0.0570
C 6.7972 -3.3275 -0.0119
C 5.6346 -2.5266 -0.0038
C 5.8210 -1.0567 0.0319
H -1.3589 -2.7071 -0.9153
H 1.1538 -3.1079 0.8507
H 1.1230 -3.0929 -0.8600
H 0.1934 -4.4103 -0.0001
H -1.0928 -2.5966 2.1694
H -1.9527 -3.8710 1.2179
H -2.5671 -2.1856 1.2097
H -2.2485 -0.0252 -0.0180
H -0.6892 2.1407 -0.0138
H 2.1392 2.1488 -0.8913
H 2.0898 1.8012 2.1852
H 1.2310 3.0796 1.2518
H 3.0251 3.0564 1.2735
H 3.3280 -0.1073 0.8709
H 4.2566 1.2006 0.0048
H 3.3267 -0.0892 -0.8699
H 2.3691 -4.4929 -0.0771
H 2.9307 -5.8658 0.8248
H 2.9482 -5.8296 -1.0109
H 5.3349 -6.3630 -0.0875
H 7.6077 -6.6773 -0.0826
H 8.4980 -5.4323 0.8597
H 8.5056 -5.3918 -0.9604
H 7.7800 -2.8724 0.0052
H 6.8842 -0.7487 0.0557
H 5.3689 -0.6742 0.9643
H 5.3958 -0.6346 -0.8958
