66
 
P 1.2750 0.0000 0.0000
N 0.4375 1.5341 -0.2301
C 1.0133 2.5188 0.7419
C 2.5519 2.6687 0.5702
C 0.4354 3.9275 0.5573
C -1.0124 1.4059 -0.2452
C -1.4291 -0.0321 0.0156
C -2.9609 -0.0741 0.0147
C -0.8641 -0.9575 -1.1435
N 0.6247 -0.9418 -1.3607
C 1.1701 -2.3539 -1.2970
C 0.6249 -3.3598 -2.3049
C 2.6908 -2.4338 -1.3901
N 0.6505 -0.3767 1.6116
C 1.2196 -1.6816 2.1116
C 2.7679 -1.7282 2.1705
C 0.6818 -2.1331 3.4702
C -0.8491 -0.4578 1.4371
Pd 3.7350 0.0003 -0.0005
N 5.8350 0.0006 -0.0009
C 6.5457 -1.1613 -0.1579
C 5.8630 -2.4733 -0.1608
C 7.9383 -1.1342 -0.3186
C 8.6062 0.0826 -0.3200
C 7.8922 1.2529 -0.1043
C 6.5013 1.1970 0.0785
C 5.7641 2.4562 0.3756
H 0.8047 2.1901 1.7863
H 2.7836 2.9917 -0.4621
H 3.1342 1.7558 0.7519
H 2.9501 3.4183 1.2899
H 0.6691 4.2966 -0.4625
H 0.8890 4.6117 1.3079
H -0.6543 3.9726 0.7198
H -1.3679 1.7485 -1.2434
H -1.4853 2.0444 0.5238
H -3.3468 0.2605 -0.9746
H -3.3609 0.6160 0.7897
H -3.3218 -1.0994 0.2199
H -1.3297 -0.6728 -2.1109
H -1.2388 -1.9701 -0.8903
H 0.8622 -2.8134 -0.3768
H 0.9434 -3.0966 -3.3283
H -0.4711 -3.4700 -2.2384
H 1.0463 -4.3632 -2.0397
H 3.0874 -2.1981 -2.3923
H 3.0546 -3.4300 -1.0426
H 3.1081 -1.7078 -0.7452
H 0.8769 -2.4954 1.4979
H 3.1575 -1.0626 2.9663
H 3.2755 -1.4791 1.2300
H 3.0973 -2.7712 2.3717
H 0.9993 -1.4462 4.2738
H 1.0822 -3.1553 3.6754
H -0.4201 -2.2406 3.4674
H -1.3003 0.1958 2.2160
H -1.2313 -1.4829 1.6071
H 4.8157 -2.2950 0.0548
H 6.2488 -3.1117 0.6611
H 6.0093 -2.9824 -1.1371
H 8.4993 -2.0509 -0.4549
H 9.6778 0.1182 -0.4695
H 8.4212 2.1981 -0.0833
H 6.4462 3.3329 0.4322
H 5.2992 2.3483 1.3795
H 5.0070 2.6410 -0.4025
