48
 
C 0.9010 -0.6430 -0.0020
N -0.3481 -1.1066 0.0037
C -0.7058 -2.5257 0.0149
C 0.6107 -3.3975 0.0017
C -1.5303 -2.8142 1.2863
C -1.5802 -2.8292 -1.2218
C -1.1433 -0.0109 0.0016
C -0.3297 1.1088 -0.0065
N 0.9551 0.6893 -0.0071
C 2.1949 1.4708 0.0002
C 2.1997 2.3509 1.2633
C 3.4299 0.5057 0.0107
C 2.2413 2.3627 -1.2571
Pd 2.6584 -1.8814 -0.0135
N 4.3750 -3.0911 -0.0247
C 5.5843 -2.4782 -0.1226
C 6.7456 -3.2346 -0.2888
C 6.6571 -4.6324 -0.3294
C 7.8758 -5.4686 -0.5933
C 5.4059 -5.2432 -0.1591
C 4.2640 -4.4461 -0.0178
H 1.2533 -3.1996 0.8716
H 1.2412 -3.2013 -0.8770
H 0.3213 -4.4689 0.0062
H -0.9280 -2.5990 2.1932
H -1.8627 -3.8730 1.3162
H -2.4417 -2.1734 1.3246
H -1.0253 -2.6116 -2.1577
H -2.5024 -2.2022 -1.2213
H -1.9031 -3.8917 -1.2330
H -2.2259 -0.0162 0.0065
H -0.6526 2.1423 -0.0072
H 2.1291 1.7162 2.1727
H 1.3249 3.0396 1.2644
H 3.1222 2.9640 1.3202
H 3.4133 -0.1650 0.8846
H 4.3718 1.0848 0.0506
H 3.4489 -0.1274 -0.8929
H 1.3721 3.0567 -1.2887
H 2.2095 1.7416 -2.1780
H 3.1687 2.9730 -1.2725
H 5.6396 -1.3984 -0.1296
H 7.6971 -2.7329 -0.4147
H 8.7714 -4.8363 -0.7767
H 7.7022 -6.0746 -1.5094
H 8.0815 -6.1476 0.2583
H 5.3124 -6.3221 -0.1756
H 3.2884 -4.9051 0.0669
