55
 
P -1.2503 -0.0617 0.9846
N -1.1528 -1.2746 -0.3141
C -2.3296 -1.1226 -1.1971
C 0.0404 -1.4894 -1.1385
C 1.3133 -1.2818 -0.3997
N 1.9784 0.1063 -0.3601
C 1.2888 1.4953 -0.2624
C -0.0869 1.6634 -0.9056
N -1.3312 1.3645 -0.0810
C -1.7637 2.4938 0.7443
N 0.1341 -0.3701 2.2346
C -0.0991 -1.4920 3.0890
C 1.6546 -0.0949 2.1480
C 2.7071 0.0086 0.9089
Pd -3.2703 0.0218 2.3713
N -4.9346 0.0408 3.5385
C -5.6377 1.1777 3.7336
C -6.6658 1.2253 4.6763
C -7.0348 0.0781 5.4219
N -8.0270 0.1415 6.4860
C -8.7011 1.3830 6.8743
C -8.3663 -1.0122 7.3177
C -6.3495 -1.1213 5.0972
C -5.2919 -1.1082 4.1817
H -3.2898 -0.9836 -0.6446
H -2.4425 -2.0143 -1.8469
H -2.1958 -0.2348 -1.8524
H 0.0475 -0.9402 -2.0754
H -0.0100 -2.5775 -1.3854
H 1.9880 -2.1604 -0.2191
H 0.9478 -1.6956 0.5305
H 2.0190 2.3327 -0.0785
H 1.0031 1.9210 0.7255
H -0.0397 1.0794 -1.8152
H -0.1201 2.7122 -1.2635
H -1.8219 3.4164 0.1255
H -1.0550 2.6618 1.5826
H -2.7811 2.2714 1.1770
H -1.0295 -1.3226 3.6369
H 0.7442 -1.5426 3.8205
H -0.0772 -2.3865 2.4430
H 1.0381 0.2369 1.5070
H 2.0499 -1.0979 2.2584
H 3.4577 -0.8417 0.8380
H 3.4953 0.7998 1.0095
H -5.3730 2.0698 3.1926
H -7.1110 2.1903 4.8021
H -8.4390 2.2762 6.2957
H -8.4512 1.6385 7.9273
H -9.7987 1.2668 6.7719
H -7.8396 -1.9419 7.0777
H -9.4484 -1.2356 7.2296
H -8.1107 -0.8025 8.3790
H -6.5557 -2.0775 5.5455
H -4.7364 -2.0236 4.0169
