50
 
C 0.9111 -0.6595 -0.0144
N -0.3575 -1.1076 -0.0343
C -0.7641 -2.4964 -0.1729
C -1.1581 -0.0202 -0.0258
C -0.3550 1.1042 0.0308
N 0.9308 0.6959 0.0346
C 2.1205 1.5221 0.1792
Pd 2.6588 -1.8775 -0.0167
P 4.6588 -3.3140 -0.0249
O 5.7716 -3.2358 -1.3202
C 6.2139 -1.8537 -1.3477
C 7.2654 -1.4235 -2.4557
C 5.0307 -0.8982 -1.5269
O 5.5141 -2.7789 1.3689
C 4.7904 -2.9502 2.5600
C 5.6264 -2.4649 3.7417
C 3.5377 -2.0816 2.4473
O 4.1925 -4.9471 -0.0488
C 3.4119 -5.2095 -1.2120
C 2.9307 -6.6775 -1.3283
C 2.1692 -4.3273 -1.1839
H 0.1278 -3.1556 -0.2055
H -1.3082 -2.6152 -1.1381
H -1.4265 -2.7936 0.6611
H -2.2394 -0.0406 -0.0704
H -0.6832 2.1349 0.0797
H 1.8462 2.5940 0.2723
H 2.8044 1.3699 -0.6773
H 2.6386 1.2320 1.1209
H 6.6496 -1.6171 -0.3477
H 6.9262 -1.5941 -3.4920
H 8.2380 -1.8964 -2.4366
H 7.5347 -0.3496 -2.3092
H 4.6098 -0.9907 -2.5492
H 5.3734 0.1532 -1.3913
H 4.2436 -1.0920 -0.7742
H 4.4737 -4.0072 2.6927
H 5.9970 -1.4329 3.5422
H 6.4733 -3.1503 3.8904
H 5.0335 -2.4866 4.6752
H 3.8125 -1.0176 2.2671
H 2.9363 -2.1453 3.3740
H 2.9107 -2.4238 1.6090
H 3.9680 -4.9331 -2.1359
H 2.4052 -6.9879 -0.3995
H 3.7522 -7.3772 -1.5535
H 2.2490 -6.7972 -2.1960
H 1.5529 -4.5637 -0.2931
H 1.5629 -4.5060 -2.0986
H 2.4520 -3.2622 -1.1666
