51
 
C 0.9010 -0.6430 -0.0020
N -0.3687 -1.0955 -0.0468
C -0.7877 -2.5035 -0.0447
C -2.3202 -2.6321 -0.0652
C -0.1706 -3.2331 -1.2370
C -1.1495 0.0099 -0.0240
C -0.3401 1.1167 0.0299
N 0.9437 0.7017 0.0579
C 2.1587 1.5199 0.0628
C 1.9385 2.8471 -0.6789
C 2.6067 1.7627 1.5007
Pd 2.6584 -1.8814 -0.0135
C 4.4159 -3.1199 -0.0250
N 5.2976 -3.0972 0.9045
C 5.2968 -2.1666 2.0135
C 5.4151 -0.7331 1.4910
C 6.3631 -4.0332 0.6204
C 5.7765 -4.8765 -0.5138
N 4.7881 -3.9933 -1.0703
C 4.0049 -4.2865 -2.2460
C 3.5235 -2.9920 -2.8945
H -0.4166 -2.9839 0.8904
H -2.7273 -2.1539 -0.9822
H -2.7594 -2.1317 0.8264
H -2.6303 -3.6966 -0.0479
H -0.5252 -2.7731 -2.1833
H -0.4754 -4.3028 -1.2196
H 0.9475 -3.1657 -1.1888
H -2.2305 0.0304 -0.0348
H -0.6778 2.1434 0.0440
H 2.9635 0.9667 -0.4738
H 1.1619 3.4565 -0.1707
H 1.6115 2.6486 -1.7227
H 2.8759 3.4399 -0.7044
H 1.8329 2.3368 2.0529
H 3.5599 2.3314 1.5095
H 2.7661 0.7918 2.0164
H 6.1784 -2.3647 2.6636
H 4.3721 -2.2810 2.6180
H 6.3502 -0.6144 0.8968
H 5.4516 -0.0180 2.3383
H 4.5419 -0.4896 0.8487
H 6.6606 -4.6733 1.4793
H 7.2309 -3.4414 0.2557
H 5.2157 -5.7347 -0.0774
H 6.5429 -5.2492 -1.2252
H 3.1438 -4.9285 -1.9819
H 4.6478 -4.8368 -2.9737
H 2.8353 -2.4525 -2.1636
H 2.9973 -3.2399 -3.8449
H 4.4111 -2.3714 -3.1716
