72
 
P 1.0347 0.0041 0.0937
C 0.3559 -0.8391 1.6374
C -1.1514 -0.8418 1.8791
C 0.8993 -2.2823 1.7953
C 0.5352 1.7769 0.2786
C 1.0788 2.4915 1.5156
C 0.9168 2.5570 -0.9821
C 0.2857 -1.0140 -1.3429
C 0.4943 -2.5400 -1.3233
C -1.2376 -0.8081 -1.6328
Pd 3.4947 0.0041 0.0937
C 5.6447 0.0041 0.0937
N 6.4155 -1.1077 0.0812
C 5.9043 -2.4752 0.0962
C 4.9452 -2.7031 -1.0699
C 5.6631 -2.5604 -2.4302
C 4.7005 -2.8439 -3.5777
C 7.6970 -0.6592 0.0749
C 7.6909 0.7128 0.0892
C 8.8741 1.4627 0.0906
C 10.0931 0.7697 0.0870
C 10.1101 -0.6401 0.0843
C 8.9044 -1.3747 0.0761
N 6.4184 1.1561 0.1239
C 6.0317 2.5944 0.2271
C 5.9868 3.2512 -1.1329
C 5.2267 2.5929 -2.0901
C 5.2197 3.0268 -3.4055
C 5.8560 4.2120 -3.7675
C 6.5718 4.9377 -2.8138
C 6.6855 4.4372 -1.5000
H 0.8214 -0.2901 2.4807
H -1.6854 -1.4222 1.1168
H -1.5490 0.1871 1.9535
H -1.3611 -1.3595 2.8432
H 0.3842 -3.0236 1.1784
H 0.7187 -2.6638 2.8213
H 1.9898 -2.3371 1.5866
H -0.5749 1.7897 0.3488
H 2.1855 2.5566 1.4885
H 0.7408 1.9949 2.4456
H 0.6651 3.5272 1.5394
H 2.0191 2.5715 -1.1147
H 0.5486 3.6047 -0.9105
H 0.4450 2.1002 -1.8784
H 0.8044 -0.5998 -2.2249
H -0.2931 -3.0482 -0.7224
H 1.5084 -2.8309 -0.9933
H 0.3086 -2.9572 -2.3352
H -1.9305 -1.3120 -0.9297
H -1.4802 -1.2916 -2.6075
H -1.5386 0.2536 -1.7176
H 5.3290 -2.6283 1.0343
H 6.7356 -3.2113 0.0759
H 4.0799 -1.9774 -0.9298
H 4.5563 -3.7427 -0.9971
H 6.5118 -3.2820 -2.4947
H 6.0759 -1.5350 -2.5499
H 4.3057 -3.8795 -3.4982
H 5.2236 -2.7399 -4.5526
H 3.8547 -2.1263 -3.5449
H 8.8694 2.5448 0.0961
H 11.0241 1.3246 0.0922
H 11.0631 -1.1547 0.0906
H 8.9352 -2.4545 0.0784
H 6.7551 3.1440 0.8745
H 5.0366 2.6777 0.7124
H 4.6802 1.7017 -1.8162
H 4.7248 2.4208 -4.1422
H 5.8035 4.5498 -4.7940
H 7.0634 5.8572 -3.1224
H 7.3132 4.9784 -0.8004
