71
 
C 1.0240 -0.6530 -0.0550
N 1.0416 0.6687 -0.1414
C 2.1532 1.6608 -0.2317
C 3.4415 1.4666 -0.8475
C 3.8265 0.2513 -1.6136
C 4.4391 2.4896 -0.7936
C 4.1990 3.7181 -0.1719
C 5.1910 4.8395 -0.0798
C 2.9866 3.9332 0.4093
C 2.0015 2.9586 0.4045
C 0.8295 3.3674 1.1962
C -0.3227 1.1144 0.0541
C -1.1326 -0.0810 -0.1123
N -0.2803 -1.1367 0.3122
C -0.7555 -2.4802 0.5678
C -1.9500 -2.9614 -0.0335
C -2.8992 -2.2101 -0.9155
C -2.3609 -4.2817 0.1621
C -1.6674 -5.1570 0.9737
C -2.1570 -6.5627 1.1342
C -0.5418 -4.7008 1.6395
C -0.0964 -3.3765 1.4551
C 1.0433 -2.9457 2.2598
Pd 2.7802 -1.8697 -0.2955
N 4.4956 -3.0582 -0.5304
C 5.0756 -3.8033 0.3718
C 4.6862 -4.0124 1.8076
C 5.0544 -5.2095 2.4793
C 4.6931 -5.4370 3.8139
C 3.9753 -4.4717 4.5123
C 3.6290 -3.2780 3.8768
C 3.9793 -3.0523 2.5287
N 6.1971 -4.4757 -0.1460
C 6.1674 -4.3521 -1.5638
C 5.2089 -3.1695 -1.7852
H 2.9376 -0.3075 -1.8886
H 4.6269 -0.2829 -1.0566
H 4.2447 0.5800 -2.5911
H 5.4087 2.3405 -1.2535
H 6.1500 4.5849 -0.5639
H 5.3702 5.0773 0.9945
H 4.7613 5.7500 -0.5575
H 2.8128 4.8888 0.9017
H 0.8982 4.3172 1.7519
H 0.7966 2.5952 1.9891
H -0.0016 3.5133 0.4822
H -0.6622 1.8648 -0.6987
H -0.5256 1.3754 1.1029
H -1.2142 -0.1561 -1.2202
H -2.0789 0.0215 0.4728
H -2.9307 -1.1479 -1.1104
H -3.8759 -2.2920 -0.4094
H -2.7945 -2.6538 -1.9209
H -3.2579 -4.6271 -0.3322
H -3.0739 -6.7351 0.5286
H -2.4005 -6.7656 2.1968
H -1.3753 -7.2646 0.7801
H -0.0226 -5.3793 2.3122
H 1.4662 -3.8078 2.8105
H 0.7855 -2.1390 2.9756
H 1.7303 -2.5654 1.5510
H 5.6005 -5.9964 1.9790
H 4.9644 -6.3645 4.3079
H 3.6866 -4.6498 5.5433
H 3.0594 -2.5400 4.4261
H 3.7011 -2.1312 2.0374
H 6.8038 -5.1261 0.3731
H 5.7119 -5.3030 -1.9180
H 7.1649 -4.2090 -2.0280
H 4.5531 -3.3874 -2.6525
H 5.7712 -2.2244 -1.9397
