90
 
C 1.0240 -0.6530 -0.0550
N 0.2106 -0.7702 0.9357
C 0.3036 -1.7291 2.0045
C -0.8735 0.1910 0.8760
C -0.4995 1.1348 -0.2530
N 0.4846 0.4038 -1.0036
C 0.7010 0.7847 -2.4372
C 1.7924 0.3136 -3.1053
C 2.2164 0.6770 -4.3802
C 1.4041 1.4645 -5.1649
C 0.2069 1.9368 -4.6157
C -0.1313 1.6513 -3.2490
Pd 2.7802 -1.8697 -0.2955
C 4.5364 -3.0865 -0.5360
N 5.7472 -2.5718 -0.9399
C 6.3436 -1.1921 -1.1424
C 7.8088 -1.0176 -1.1745
C 8.8424 -2.1156 -0.8233
C 10.3344 -1.7854 -0.8327
C 8.5668 -2.7306 0.5761
C 8.3646 0.2367 -1.5078
C 7.6051 1.3240 -1.7972
C 6.2791 1.2530 -1.6399
C 5.6036 0.0712 -1.2388
C 4.1356 0.2567 -0.9996
C 3.7126 0.1826 0.4713
C 3.6105 1.6991 -1.4009
C 6.4164 -3.7114 -1.2372
C 5.8191 -4.8153 -0.7339
N 4.5986 -4.4841 -0.3158
C 3.5963 -5.5231 0.0716
C 3.8271 -6.7617 0.8402
C 5.1179 -7.2154 1.5308
C 4.8674 -7.5342 3.0241
C 5.6528 -8.4979 0.8644
C 2.7742 -7.7238 0.9409
C 1.5305 -7.5135 0.4085
C 1.3054 -6.3893 -0.3211
C 2.3297 -5.4517 -0.5517
C 2.2689 -4.7862 -1.8900
C 2.8746 -5.8925 -2.8616
C 0.8846 -4.3008 -2.2948
H 1.1023 -2.4729 1.8122
H -0.6736 -2.2528 2.0966
H 0.4900 -1.1909 2.9600
H -1.0187 0.7744 1.8118
H -1.8021 -0.3600 0.6170
H 0.0291 2.0320 0.1495
H -1.3921 1.4729 -0.8169
H 2.3114 -0.3319 -2.5679
H 3.1723 0.3208 -4.7482
H 1.7135 1.6753 -6.1890
H -0.4306 2.5314 -5.2652
H -1.0505 2.0925 -2.8913
H 8.8704 -2.8074 -1.6544
H 10.6184 -1.1294 0.0145
H 10.6512 -1.3698 -1.8102
H 10.8757 -2.7540 -0.7214
H 8.5914 -1.9608 1.3742
H 9.3004 -3.5323 0.7985
H 7.5970 -3.2102 0.6940
H 9.4158 0.4165 -1.5694
H 8.0303 2.2738 -2.0948
H 5.8373 2.2135 -1.8386
H 3.8617 -0.5781 -1.6236
H 4.2712 0.8972 1.0909
H 3.7658 -0.7639 1.0227
H 2.7294 0.6740 0.6215
H 4.0717 2.4473 -0.7148
H 2.5450 1.9472 -1.2607
H 3.8360 1.9169 -2.4657
H 7.3066 -3.8315 -1.7619
H 6.2635 -5.7981 -0.7776
H 5.8962 -6.4340 1.4598
H 4.0759 -8.3042 3.1690
H 4.5575 -6.6245 3.5719
H 5.7824 -7.9579 3.4881
H 4.9492 -9.3491 0.9994
H 6.6136 -8.8299 1.3136
H 5.8048 -8.3039 -0.2149
H 2.8908 -8.6874 1.4196
H 0.7519 -8.2659 0.4772
H 0.3520 -6.3507 -0.8153
H 2.8440 -3.8655 -1.9283
H 2.8430 -6.9246 -2.4160
H 3.9669 -5.7693 -3.0415
H 2.3240 -6.0600 -3.8060
H 0.2556 -5.1641 -2.5387
H 0.9728 -3.6717 -3.2046
H 0.4066 -3.7009 -1.4834
