52
 
C 2.3270 0.0340 0.0000
N 1.5403 1.1287 -0.0133
C 2.0424 2.5052 -0.0107
C 2.9784 2.6968 -1.2043
C 3.5477 4.1175 -1.3128
C 4.3935 4.2417 -2.5812
C 0.2737 0.6452 -0.0151
C 0.3121 -0.7341 0.0007
C -0.8658 -1.4997 0.0143
C -2.0947 -0.8253 0.0035
C -2.1363 0.5821 -0.0142
C -0.9457 1.3367 -0.0212
N 1.6006 -1.1541 0.0120
C 2.0364 -2.6093 0.0481
C 2.7376 -2.9356 1.3514
C 2.0930 -2.4772 2.4955
C 2.7586 -2.4370 3.7086
C 4.0440 -2.9617 3.8270
C 4.6384 -3.6049 2.7360
C 3.9977 -3.5837 1.4805
Pd 4.4769 0.0580 0.0014
N 6.5767 0.0815 0.0028
C 7.1703 -1.0087 0.5644
C 8.5569 -1.0713 0.7122
C 9.3386 -0.0158 0.2459
Cl 11.0818 -0.0579 0.4552
C 8.7232 1.0769 -0.3738
C 7.3223 1.1179 -0.4744
H 2.6251 2.6768 0.9201
H 1.2008 3.2296 -0.0396
H 2.3826 2.4957 -2.1282
H 3.8386 1.9663 -1.0606
H 4.1785 4.3333 -0.4245
H 2.7288 4.8710 -1.3598
H 5.2175 3.4974 -2.5679
H 4.8313 5.2590 -2.6580
H 3.7646 4.0627 -3.4812
H -0.8684 -2.5796 0.0337
H -3.0173 -1.3942 0.0097
H -3.0975 1.0805 -0.0210
H -0.9951 2.4155 -0.0307
H 2.6624 -2.8753 -0.8290
H 1.1523 -3.2807 0.0059
H 1.0929 -2.0751 2.4196
H 2.2736 -1.9571 4.5424
H 4.5660 -2.8726 4.7702
H 5.6141 -4.0656 2.8664
H 4.5089 -4.0392 0.6372
H 6.5560 -1.8143 0.9437
H 9.0151 -1.9252 1.1971
H 9.3279 1.8885 -0.7570
H 6.8418 1.9643 -0.9442
