65
 
P 1.0706 0.0303 -0.0640
C 0.3083 1.4195 -1.2347
C -1.2281 1.5302 -1.3014
C 0.8191 2.8523 -0.9036
C 0.7842 1.2441 -2.6964
C 0.5924 -1.7238 -0.8003
C 1.1952 -2.0360 -2.1853
C 1.0998 -2.8928 0.0818
C -0.9433 -1.9626 -0.9029
C 0.5308 0.4388 1.7528
C -1.0101 0.4619 1.9034
C 1.0062 -0.6462 2.7434
C 1.0620 1.7656 2.3256
Pd 3.5306 0.0303 -0.0640
C 5.6806 0.0303 -0.0640
N 6.3866 -0.3768 -1.0508
C 5.8580 -0.9656 -2.2575
C 7.7968 -0.2416 -0.7733
C 7.8288 0.6387 0.4810
N 6.4873 0.5140 0.9988
C 6.0772 0.8592 2.3296
C 7.0100 1.3602 3.2680
C 6.6242 1.6431 4.5829
C 5.3052 1.4378 4.9840
C 4.3699 0.9490 4.0707
C 4.7521 0.6566 2.7534
H -1.6867 1.9355 -0.4046
H -1.7262 0.6154 -1.5794
H -1.5301 2.2521 -2.0876
H 0.3961 3.2817 0.0020
H 0.4448 3.5798 -1.6627
H 1.9284 2.9299 -0.9071
H 0.2955 0.4096 -3.1790
H 1.8945 1.2331 -2.7913
H 0.4145 2.0700 -3.3455
H 2.3001 -2.0251 -2.1535
H 0.8509 -1.4365 -3.0105
H 0.8544 -3.0424 -2.5202
H 2.2008 -2.8769 0.1978
H 0.8206 -3.8691 -0.3825
H 0.6029 -2.9710 1.0531
H -1.4398 -1.3269 -1.6300
H -1.4604 -1.9371 0.0725
H -1.1702 -2.9708 -1.3073
H -1.4872 -0.4477 1.5148
H -1.4632 1.3471 1.4653
H -1.3197 0.5423 2.9657
H 0.5878 -1.6255 2.5218
H 0.6120 -0.4377 3.7657
H 2.1047 -0.7082 2.8181
H 0.6512 2.6452 1.8449
H 2.1650 1.8090 2.3141
H 0.7133 1.8908 3.3763
H 4.7474 -0.9830 -2.2447
H 6.2337 -2.0072 -2.3534
H 6.2023 -0.3794 -3.1351
H 8.3781 0.2250 -1.5964
H 8.1894 -1.2591 -0.5495
H 7.9531 1.7077 0.1911
H 8.6402 0.3230 1.1682
H 8.0439 1.5264 3.0012
H 7.3508 2.0161 5.2949
H 5.0099 1.6528 6.0040
H 3.3492 0.7890 4.3916
H 4.0184 0.2584 2.0712
