54
 
C 2.3270 0.0340 0.0000
N 1.5408 1.1356 -0.0203
C 2.0356 2.5094 -0.0265
C 3.0060 2.7280 -1.1861
C 2.3031 2.5733 -2.5552
C 3.2765 2.8612 -3.6937
C 0.2672 0.6664 -0.0124
C 0.3061 -0.7045 0.0248
C -0.8608 -1.4783 0.0503
C -2.0947 -0.8117 0.0243
C -2.1434 0.5969 -0.0105
C -0.9544 1.3576 -0.0247
N 1.5967 -1.1032 0.0342
C 2.1432 -2.4566 0.0525
C 1.7371 -3.2143 -1.2198
C 2.2305 -2.4634 -2.4612
C 1.8128 -3.1687 -3.7391
Pd 4.4769 0.0580 0.0014
N 6.5767 0.0815 0.0028
C 7.1954 1.2938 -0.0667
C 8.5932 1.3750 -0.1865
C 9.2996 2.6949 -0.3090
C 9.3334 0.1888 -0.2193
C 8.6827 -1.0424 -0.1219
C 7.2879 -1.0781 -0.0085
H 2.6055 2.6841 0.9109
H 1.1960 3.2357 -0.0620
H 3.8792 2.0097 -1.0191
H 3.3822 3.7730 -1.1227
H 1.4502 3.2896 -2.6349
H 1.8968 1.5457 -2.6754
H 3.6631 3.9002 -3.6136
H 2.7678 2.7512 -4.6759
H 4.1271 2.1507 -3.6480
H -0.8412 -2.5566 0.0918
H -3.0134 -1.3869 0.0350
H -3.1078 1.0898 -0.0231
H -1.0088 2.4366 -0.0458
H 1.7774 -2.9910 0.9559
H 3.2606 -2.3958 0.0994
H 0.6372 -3.3268 -1.2814
H 2.1652 -4.2388 -1.1890
H 3.3375 -2.3834 -2.4225
H 1.7979 -1.4391 -2.4852
H 2.2377 -4.1931 -3.7631
H 2.1909 -2.5940 -4.6102
H 0.7041 -3.2194 -3.7980
H 6.5907 2.1921 -0.0620
H 8.5934 3.5488 -0.2377
H 9.8136 2.7476 -1.2930
H 10.0595 2.7948 0.4947
H 10.4117 0.2214 -0.3259
H 9.2571 -1.9588 -0.1555
H 6.7730 -2.0279 0.0327
