33
 
C -0.3004 -1.1414 0.0016
N -1.2159 -0.0507 0.0201
C -2.7309 -0.1032 0.0105
C -0.4098 1.1145 0.0069
C -0.7157 2.6619 0.0037
C 0.9088 0.7094 -0.0116
C 2.1332 1.5959 -0.0103
N 0.9764 -0.6358 -0.0244
C 2.2651 -1.3442 -0.0004
Pd -0.5748 -3.4228 -0.0276
N -0.8575 -5.5129 -0.0475
C -2.0147 -6.1658 0.3190
C -2.0517 -7.5728 0.4519
C -1.0024 -8.3317 -0.0152
Cl -1.0325 -10.0830 0.1641
C 0.0647 -7.6806 -0.6140
C 0.1718 -6.2794 -0.5186
H -3.1518 -1.1397 0.0017
H -3.2032 0.3955 -0.8799
H -3.2080 0.3949 0.8901
H -1.7818 2.9026 0.0042
H -0.2668 3.2185 -0.8775
H -0.2632 3.2182 0.8809
H 1.8893 2.6639 -0.0117
H 2.7454 1.3790 -0.9095
H 2.7513 1.3846 0.8877
H 3.1233 -0.6337 0.0138
H 2.3889 -1.9643 -0.8929
H 2.3706 -1.9509 0.9155
H -2.9049 -5.6332 0.5645
H -2.8920 -8.0918 0.8883
H 0.8214 -8.2604 -1.1031
H 1.0788 -5.8026 -0.8442
