65
 
C 1.0240 -0.6530 -0.0550
N 1.0046 0.6571 -0.1031
C 2.1011 1.6494 -0.1421
C 3.3738 1.4499 -0.7703
C 3.7042 0.2130 -1.5439
C 4.3805 2.4751 -0.7124
C 4.1513 3.6943 -0.0520
C 5.1479 4.8232 0.0671
C 2.9404 3.8925 0.5519
C 1.9444 2.9219 0.5297
C 0.7585 3.3007 1.3362
C -0.3828 1.0722 -0.0248
C -1.2139 -0.1506 -0.2249
N -0.3041 -1.2095 0.1133
C -0.7060 -2.5652 0.4647
C 0.1252 -3.6762 0.1758
C 1.3383 -3.6296 -0.6212
C -0.1852 -4.9627 0.5929
C -1.3396 -5.2271 1.2871
C -1.6314 -6.6268 1.7145
C -2.2181 -4.1881 1.5637
C -1.9370 -2.8640 1.1691
C -2.9822 -1.8542 1.5701
Pd 2.7802 -1.8697 -0.2955
N 4.4956 -3.0582 -0.5304
C 5.7262 -2.4913 -0.3637
C 6.8915 -3.2096 -0.6220
C 6.8146 -4.5385 -1.0645
O 7.9170 -5.2640 -1.3801
C 9.2020 -4.7621 -1.3802
C 5.5601 -5.1217 -1.2014
C 4.4184 -4.3722 -0.9311
H 2.8819 -0.4544 -1.7150
H 4.4345 -0.3646 -1.0232
H 4.1089 0.5478 -2.5368
H 5.3448 2.3423 -1.1915
H 6.1106 4.6016 -0.4280
H 5.3394 5.0333 1.1460
H 4.7202 5.7556 -0.3709
H 2.7756 4.8337 1.0720
H 0.8571 4.2414 1.9071
H 0.6729 2.5093 2.1080
H -0.0972 3.4574 0.6528
H -0.6753 1.8362 -0.7797
H -0.6138 1.3512 1.0139
H -1.5024 -0.2935 -1.2870
H -2.1033 0.0412 0.3805
H 1.3273 -2.7434 -1.2826
H 1.2808 -4.3787 -1.4254
H 2.1390 -3.9886 0.0758
H 0.4940 -5.7753 0.3523
H -0.8142 -7.3193 1.4119
H -2.5711 -6.9629 1.2346
H -1.7242 -6.6599 2.8183
H -3.1293 -4.4207 2.1009
H -3.8101 -2.2922 2.1649
H -3.4798 -1.4587 0.6605
H -2.5279 -1.0622 2.2041
H 5.8348 -1.4751 -0.0278
H 7.8422 -2.7155 -0.4897
H 9.9136 -5.5503 -1.6945
H 9.4720 -4.4196 -0.3593
H 9.2747 -3.9117 -2.0942
H 5.4552 -6.1449 -1.5459
H 3.4957 -4.8807 -1.1174
