59
 
P 1.0518 0.0295 0.0802
C 0.2603 1.2409 1.4192
C -1.2841 1.3203 1.5372
C 0.7772 0.9376 2.8546
C 0.7479 2.6940 1.1969
C 0.6197 0.7317 -1.6941
C 1.2557 2.0993 -2.0358
C 1.1435 -0.2023 -2.8111
C -0.9099 0.8449 -1.9614
C 0.5458 -1.7755 0.5497
C -0.9938 -1.9520 0.5854
C 1.0529 -2.7827 -0.5042
C 1.1088 -2.2920 1.8882
Pd 3.5118 0.0295 0.0802
P 5.9718 0.0295 0.0802
O 6.8315 -0.4503 -1.3417
C 8.2274 -0.4117 -1.2295
C 8.6543 0.0534 0.1480
C 10.1879 0.0796 0.2241
C 8.0262 1.4853 0.3458
O 6.6206 1.5954 0.0776
O 6.6215 -1.2169 1.0273
C 8.0270 -0.9660 1.1734
H -1.7463 0.4336 1.9748
H -1.7990 1.5766 0.6122
H -1.5679 2.1234 2.2541
H 0.3217 0.0568 3.3092
H 0.4530 1.7291 3.5717
H 1.8866 0.8966 2.9022
H 0.2351 3.1788 0.3654
H 1.8561 2.7519 1.1233
H 0.4519 3.3570 2.0441
H 2.3595 2.0526 -1.9577
H 0.8788 2.9559 -1.4848
H 0.9927 2.3835 -3.0830
H 2.2393 -0.3471 -2.7431
H 0.9193 0.2277 -3.8169
H 0.6164 -1.1610 -2.8547
H -1.4030 1.6191 -1.3650
H -1.4343 -0.1217 -1.8532
H -1.1129 1.1627 -3.0086
H -1.4801 -1.5985 -0.3382
H -1.4493 -1.4728 1.4535
H -1.2833 -3.0182 0.7017
H 0.6009 -2.6266 -1.4856
H 0.7248 -3.8164 -0.2433
H 2.1582 -2.7852 -0.5755
H 0.6894 -1.8083 2.7659
H 2.2149 -2.2348 1.9091
H 0.8056 -3.3543 2.0394
H 8.6177 0.2727 -2.0152
H 8.6184 -1.4320 -1.4398
H 10.5978 0.7640 -0.5524
H 10.5984 -0.9352 0.0212
H 10.5308 0.4161 1.2208
H 8.5353 2.1751 -0.3636
H 8.2381 1.8435 1.3741
H 8.5366 -1.9444 1.0271
H 8.2390 -0.6275 2.2083
