56
 
C -0.2848 -1.1566 0.0020
N 0.5327 -0.2708 -0.8122
C 1.4538 -0.6303 -2.0080
C 0.2676 1.0624 -0.3125
C 0.7461 2.5414 -0.6832
C -0.6300 0.9119 0.7438
C -1.1919 2.0065 1.6093
N -0.9688 -0.3927 0.9207
C -1.8795 -0.8104 1.9851
Pd -0.5603 -3.4191 0.0128
P -0.8329 -5.8787 -0.0011
O -2.2851 -6.3579 -0.8187
C -2.2017 -5.8727 -2.1555
C -3.4233 -6.2230 -2.9886
C -2.0353 -4.3628 -2.1713
O 0.5032 -6.5605 -0.8785
C 1.7074 -6.2579 -0.2921
C 2.7576 -6.9043 -1.1371
C 1.9093 -4.7553 -0.2848
O -0.9410 -6.4722 1.6105
C -2.0344 -5.8836 2.2852
C -3.3495 -6.1927 1.6103
C -2.1084 -6.4160 3.7052
H 1.4947 -1.7190 -2.2268
H 2.5137 -0.3200 -1.8609
H 1.1517 -0.1542 -2.9761
H 1.4280 2.5173 -1.5192
H 1.2663 3.0651 0.1591
H -0.0951 3.2299 -0.9577
H -0.8274 2.9810 1.3176
H -0.9181 1.8281 2.6585
H -2.2876 2.0044 1.5380
H -2.2362 0.0618 2.5509
H -1.3827 -1.4736 2.6915
H -2.7449 -1.3037 1.5591
H -1.3132 -6.3145 -2.6247
H -4.3132 -5.7864 -2.5461
H -3.5284 -7.2795 -3.0340
H -3.3076 -5.8808 -4.0147
H -2.9144 -3.8892 -1.7293
H -1.9150 -3.9935 -3.1950
H -1.1548 -4.0795 -1.5989
H 1.7472 -6.6219 0.7353
H 2.6832 -6.5423 -2.1643
H 2.6158 -7.9742 -1.1290
H 3.7360 -6.7011 -0.7358
H 1.8478 -4.3619 -1.3026
H 2.8966 -4.5233 0.1231
H 1.1546 -4.2613 0.3293
H -1.8986 -4.7967 2.3385
H -3.4918 -7.2677 1.5382
H -3.3879 -5.7539 0.6641
H -4.1796 -5.7242 2.1076
H -2.2584 -7.4986 3.6879
H -2.9438 -5.9571 4.2466
H -1.1838 -6.1956 4.2394
