63
 
P 0.9660 -0.0858 0.0385
O -0.1969 -1.2217 -0.4456
C 0.3175 -1.7535 -1.6755
O 0.4755 0.0861 1.6625
C 1.0917 1.2425 2.1857
O 0.6250 0.9043 -1.3167
C 1.2601 2.1373 -1.1885
Pd 3.4260 -0.0858 0.0385
P 5.8860 -0.0858 0.0385
C 6.5875 -0.3514 -1.6991
C 6.1078 0.7772 -2.6441
C 8.1137 -0.4828 -1.8290
C 5.9512 -1.6426 -2.2508
C 6.4140 1.5844 0.7624
C 5.8634 1.6477 2.1962
C 7.9598 1.7348 0.8413
C 5.8710 2.8140 0.0161
C 6.3216 -1.5541 0.9924
C 5.3434 -2.3522 1.5751
C 5.7055 -3.3962 2.4369
C 7.0667 -3.6823 2.7427
N 7.4473 -4.7101 3.7028
C 6.4781 -5.5252 4.4301
C 8.8331 -4.9789 4.0840
C 8.0358 -2.8797 2.0933
C 7.6650 -1.8376 1.2536
H 0.0087 -2.8034 -1.8386
H 1.4419 -1.7867 -1.7642
H -0.0618 -1.1453 -2.5246
H 0.6306 1.4814 3.1660
H 0.9165 2.1577 1.5884
H 2.1768 1.0706 2.3416
H 1.1174 2.6773 -2.1471
H 2.3518 2.0115 -1.0275
H 0.7579 2.7663 -0.4314
H 6.6456 1.7165 -2.4795
H 5.0092 0.9400 -2.5545
H 6.3290 0.5391 -3.7065
H 8.6452 0.4416 -1.5718
H 8.3872 -0.6954 -2.8840
H 8.5035 -1.3283 -1.2457
H 4.8401 -1.5769 -2.2261
H 6.2731 -2.5318 -1.6741
H 6.2504 -1.7993 -3.3129
H 6.2438 0.8082 2.8159
H 4.7540 1.6191 2.1818
H 6.1780 2.5957 2.6904
H 8.4617 0.8775 1.3260
H 8.2478 2.6352 1.4248
H 8.4069 1.9072 -0.1516
H 4.7733 2.7461 -0.1141
H 6.3617 2.9847 -0.9478
H 6.1185 3.7385 0.5839
H 4.2952 -2.1446 1.4026
H 4.8803 -3.9298 2.8625
H 5.4237 -5.3385 4.1964
H 6.5882 -5.3445 5.5212
H 6.6629 -6.5996 4.2238
H 9.5971 -4.3716 3.5850
H 9.0829 -6.0387 3.8695
H 8.9602 -4.7908 5.1720
H 9.0975 -2.9853 2.2217
H 8.4583 -1.2365 0.8491
