27
 
N -1.3914 -0.1149 -0.0533
C -0.6692 -1.2325 0.4460
C 0.6584 -1.0647 0.8712
F 1.2534 -2.0124 1.5902
C 1.3081 0.0204 0.5608
C 0.6873 1.0147 -0.2055
C -0.7176 0.9932 -0.3746
Pd -3.4759 -0.1996 -0.2824
N -5.5610 -0.2918 -0.5098
C -6.1780 -1.4675 -0.6478
O -5.4365 -2.6764 -0.6445
C -6.1039 -3.9197 -0.7943
C -7.5924 -1.4849 -0.7990
C -8.2698 -0.2927 -1.0978
C -7.6618 0.8515 -0.9677
C -6.3352 0.8932 -0.5203
H -1.1179 -2.1617 0.4976
H 2.2819 0.1464 0.8800
H 1.2520 1.7602 -0.6437
H -1.2151 1.8207 -0.7413
H -5.3889 -4.7159 -0.7677
H -6.6216 -3.9370 -1.7314
H -6.8072 -4.0458 0.0032
H -8.1165 -2.3684 -0.6908
H -9.2502 -0.3214 -1.4202
H -8.1589 1.7273 -1.1948
H -5.9246 1.7854 -0.1993
