23
 
N -1.3997 -0.0778 -0.0644
C -0.5197 -0.7177 -0.9050
C 0.8355 -0.8591 -0.5825
Cl 1.8897 -1.9856 -1.4355
C 1.3343 -0.1063 0.4180
C 0.5122 0.7888 1.0790
C -0.8778 0.6883 0.9370
Pd -3.4709 -0.2004 -0.2842
N -5.5545 -0.3157 -0.4988
C -6.1633 -1.3757 -1.1437
C -7.5003 -1.3313 -1.5556
Cl -8.1934 -2.5243 -2.6533
C -8.2668 -0.3233 -1.0962
C -7.7301 0.6052 -0.2205
C -6.3463 0.6841 -0.0380
H -0.8652 -1.1508 -1.7958
H 2.3497 -0.2064 0.6601
H 0.9447 1.5156 1.7065
H -1.5159 1.2264 1.5972
H -5.6242 -2.2679 -1.3302
H -9.2680 -0.2759 -1.4043
H -8.3741 1.2605 0.2908
H -5.9130 1.5251 0.4347
