77
 
N -1.3900 -0.1120 -0.0540
C -0.6394 0.3909 -1.0858
C 0.7736 0.3260 -1.0672
C 1.4391 -0.1642 0.0548
Cl 3.1933 -0.2797 0.1073
C 0.6973 -0.5723 1.1454
C -0.6939 -0.5522 1.0727
Pd -3.4756 -0.2017 -0.2821
C -5.6110 -0.2936 -0.5156
N -6.3003 -1.5093 -0.3673
C -5.9328 -2.9815 -0.3457
C -4.7767 -3.5220 0.3057
C -3.8039 -2.7444 1.0189
C -2.8349 -2.4457 -0.0234
C -4.3862 -1.6609 1.9023
C -4.4351 -4.8881 0.3047
C -5.2512 -5.8107 -0.2513
C -6.4089 -5.3885 -0.8626
C -6.7582 -4.0089 -0.9773
C -7.9757 -3.7264 -1.8587
C -7.7965 -4.3627 -3.2554
C -9.2836 -4.2266 -1.2273
C -7.5748 -1.1234 -0.2145
C -7.6846 0.2453 -0.2884
N -6.4779 0.8218 -0.5198
C -6.2980 2.3273 -0.4683
C -6.9536 3.2069 0.5451
C -7.9365 2.8066 1.6748
C -7.5488 3.2702 3.1068
C -9.3155 3.4207 1.3593
C -6.7109 4.6115 0.5279
C -5.9062 5.2102 -0.4012
C -5.3205 4.4474 -1.3655
C -5.4920 3.0433 -1.4444
C -4.7412 2.3932 -2.5864
C -4.8376 3.1125 -3.9764
C -3.2863 2.4193 -2.1588
H -1.1108 0.7229 -1.9908
H 1.3573 0.6269 -1.9280
H 1.1908 -0.9296 2.0433
H -1.2130 -0.8828 1.9652
H -3.2775 -3.3746 1.7894
H -3.1982 -1.9962 -0.9573
H -2.1526 -3.2781 -0.3131
H -2.3815 -1.8645 0.6146
H -4.4793 -0.7740 1.3557
H -3.7126 -1.3133 2.7034
H -5.3532 -2.0092 2.3284
H -3.5092 -5.2485 0.7581
H -4.9626 -6.8539 -0.2043
H -7.0125 -6.1732 -1.2844
H -8.0771 -2.6466 -2.0411
H -7.6602 -5.4637 -3.2038
H -6.9073 -3.9377 -3.7658
H -8.6942 -4.1907 -3.8820
H -9.3478 -5.3346 -1.2279
H -10.1414 -3.8312 -1.8137
H -9.3906 -3.8634 -0.1846
H -8.3866 -1.8029 -0.0040
H -8.6233 0.7560 -0.1336
H -8.0423 1.7164 1.7367
H -7.4758 4.3760 3.2101
H -6.6001 2.8143 3.4473
H -8.3485 2.9628 3.8214
H -9.2826 4.5348 1.3611
H -10.0744 3.1234 2.1135
H -9.6484 3.0778 0.3609
H -7.1484 5.2939 1.2476
H -5.7353 6.2845 -0.3885
H -4.7132 4.9971 -2.0674
H -5.0841 1.3481 -2.7118
H -4.4125 4.1431 -3.9787
H -5.8674 3.1721 -4.3828
H -4.2097 2.5694 -4.7154
H -2.9351 3.4675 -2.0410
H -2.6778 1.9269 -2.9342
H -3.1654 1.9608 -1.1684
