20
 
N -1.3900 -0.1120 -0.0540
C -0.7966 1.1113 -0.0630
C 0.5965 1.2157 -0.0413
C 1.3673 0.0520 0.0230
Cl 3.1186 0.1562 0.0268
C 0.7366 -1.1951 0.0655
C -0.6594 -1.2571 0.0100
Pd -3.4756 -0.2017 -0.2821
O -5.5116 -0.2893 -0.5047
C -6.2409 -1.3750 -0.5349
N -7.5483 -1.0684 -0.6700
C -7.5728 0.2805 -0.7386
C -6.2854 0.7551 -0.6232
H -1.4068 2.0007 -0.1496
H 1.0699 2.1881 -0.0934
H 1.3205 -2.1049 0.1203
H -1.1629 -2.2146 0.0222
H -5.8567 -2.3790 -0.4166
H -8.4666 0.8763 -0.8679
H -5.9507 1.7837 -0.6547
