27
 
N -1.3900 -0.1120 -0.0540
C -0.8111 1.0978 0.1059
C 0.5770 1.2151 0.1016
C 1.4011 0.0663 -0.0469
N 2.8494 0.1674 -0.1544
C 3.5668 1.4397 -0.1501
C 3.7180 -0.9878 -0.3643
C 0.7298 -1.1839 -0.1327
C -0.6609 -1.2442 -0.1492
Pd -3.4756 -0.2017 -0.2821
C -5.6110 -0.2936 -0.5156
N -6.4188 0.7795 -0.4227
C -7.6488 0.2763 -0.6273
C -7.5416 -1.0818 -0.8267
O -6.2720 -1.4022 -0.7584
H -1.4345 1.9808 0.1699
H 0.9448 2.2204 0.1808
H 2.9495 2.3371 -0.0237
H 4.0984 1.5653 -1.1182
H 4.3132 1.4470 0.6709
H 3.2189 -1.9631 -0.3976
H 4.4698 -1.0446 0.4495
H 4.2454 -0.8792 -1.3363
H 1.2208 -2.1328 -0.2275
H -1.1660 -2.1949 -0.2626
H -8.5601 0.8590 -0.6288
H -8.3499 -1.7773 -1.0087
