41
 
P -0.0940 -2.5890 -0.0020
N -1.3277 -3.1710 -1.1392
C -0.6385 -4.2297 -1.9202
C -2.3784 -3.9078 -0.3767
O 0.9571 -1.8201 -1.0098
C 1.5133 -0.6945 -0.5168
C 2.9100 -0.6310 -0.5127
C 3.5722 0.4755 0.0124
C 2.8435 1.5501 0.5152
C 1.4474 1.5236 0.4932
C 0.7466 0.4019 -0.0018
C -0.7602 0.4482 0.0276
C -1.3965 1.6087 -0.4618
C -2.7899 1.7096 -0.4881
C -3.5768 0.6782 0.0161
C -2.9770 -0.4575 0.5463
C -1.5857 -0.6002 0.5406
O -1.0787 -1.7502 1.0244
Pd 1.4250 -4.0575 1.2581
N 2.7217 -5.3111 2.3338
C 2.8091 -6.6502 2.3583
O 3.8032 -7.0373 3.1323
C 4.3732 -5.9531 3.6189
C 3.7021 -4.8599 3.1254
H 0.1846 -3.8090 -2.5282
H -1.3387 -4.7562 -2.6059
H -0.1909 -5.0222 -1.2576
H -2.9295 -3.2595 0.3224
H -1.9754 -4.7631 0.2260
H -3.1397 -4.3373 -1.0667
H 3.4849 -1.4631 -0.8993
H 4.6537 0.4961 0.0324
H 3.3632 2.4059 0.9272
H 0.9128 2.3748 0.8987
H -0.8141 2.4297 -0.8619
H -3.2628 2.5896 -0.9028
H -4.6557 0.7523 -0.0045
H -3.6027 -1.2454 0.9407
H 2.1663 -7.3188 1.8033
H 5.2285 -5.9346 4.2819
H 3.9125 -3.8144 3.3117
