35
 
N 0.9364 -0.0585 0.0504
C 0.2881 -0.5410 1.2990
C 0.8521 1.3999 0.1129
C 0.4694 -0.8076 -1.0951
C 0.4675 -0.2146 -2.3772
C -0.0219 -0.9111 -3.4877
C -0.5145 -2.2088 -3.3434
C -0.5016 -2.8221 -2.0943
C -0.0064 -2.1408 -0.9864
Pd 3.0364 -0.0585 0.0504
N 5.1364 -0.0585 0.0504
C 5.8190 -1.1766 0.4048
N 7.1723 -1.1291 0.5309
C 7.8705 -0.0028 0.2082
O 9.2159 0.0522 0.3471
C 9.9520 -0.8957 1.0255
C 7.1851 1.1223 -0.2503
C 5.7925 1.0865 -0.2676
H -0.7332 -0.9454 1.0997
H -0.0319 0.2707 2.0061
H 0.9137 -1.2571 1.8563
H -0.2014 1.7563 0.1346
H 1.4094 1.8833 -0.7068
H 1.3744 1.7482 1.0427
H 0.8295 0.7922 -2.5306
H -0.0276 -0.4409 -4.4623
H -0.9039 -2.7443 -4.1984
H -0.8799 -3.8289 -1.9751
H -0.0156 -2.6683 -0.0429
H 5.2786 -2.0579 0.7241
H 11.0259 -0.6199 0.9906
H 9.8162 -1.8950 0.5631
H 9.6340 -0.9297 2.0915
H 7.7165 2.0140 -0.5605
H 5.2299 1.9470 -0.6065
