78
 
P 1.0686 -0.0708 -0.0168
C 0.1735 -0.1209 -1.6749
C 0.5435 1.0582 -2.5974
C 0.1530 0.5702 -3.9867
C 0.6492 -0.8577 -4.0237
C 0.6943 -1.2902 -2.5521
C 0.5772 -1.6556 0.8015
C 1.0297 -2.9554 0.1564
C 0.7862 -3.9567 1.2676
C 1.3207 -3.2527 2.5010
C 1.1260 -1.7539 2.2298
C 0.5858 1.5298 0.7821
C 1.1856 1.6751 2.1765
C 0.8944 3.1319 2.4941
C 1.2432 3.8497 1.1987
C 1.0234 2.8168 0.0812
Pd 3.5286 -0.0708 -0.0168
P 5.9886 -0.0708 -0.0168
C 6.7418 0.6509 1.4527
C 7.5813 -0.0550 2.3265
C 7.9287 0.5066 3.5656
C 7.4443 1.7674 3.9346
F 7.7446 2.2857 5.1520
C 6.6274 2.4822 3.0584
C 6.2774 1.9269 1.8253
C 6.4277 -1.8284 -0.1067
C 7.1696 -2.2704 -1.2224
C 7.4811 -3.6217 -1.3882
C 7.0607 -4.5522 -0.4398
F 7.3385 -5.8685 -0.6183
C 6.3489 -4.1248 0.6878
C 6.0319 -2.7659 0.8581
C 6.4005 0.9835 -1.4247
C 5.3807 1.5325 -2.2109
C 5.6916 2.1957 -3.4048
C 7.0221 2.3239 -3.8157
F 7.3138 2.9313 -4.9938
C 8.0491 1.8082 -3.0208
C 7.7422 1.1387 -1.8279
H -0.9332 -0.1716 -1.5949
H 1.6449 1.2264 -2.5873
H 0.0084 1.9946 -2.3690
H 0.5343 1.1849 -4.8343
H -0.9559 0.5435 -4.0378
H 1.6886 -0.8942 -4.4266
H 0.0120 -1.4944 -4.6782
H 1.7780 -1.4392 -2.3263
H 0.1414 -2.2304 -2.4265
H -0.5366 -1.7011 0.8789
H 2.1090 -2.8922 -0.0939
H 0.4284 -3.2698 -0.7087
H 1.2422 -4.9530 1.0805
H -0.3138 -4.0837 1.3851
H 2.4168 -3.4358 2.5433
H 0.8556 -3.6263 3.4387
H 2.1309 -1.2813 2.2897
H 0.4481 -1.2588 2.9583
H -0.5243 1.5684 0.8991
H 2.2840 1.5078 2.1235
H 0.7335 0.9976 2.9318
H 1.4280 3.5348 3.3834
H -0.2006 3.2342 2.6658
H 2.3272 4.0971 1.2050
H 0.6643 4.7922 1.0806
H 2.0014 2.6501 -0.4180
H 0.2587 3.1735 -0.6351
H 7.9255 -1.0493 2.0859
H 8.5461 -0.0496 4.2581
H 6.2357 3.4509 3.3484
H 5.5941 2.4744 1.1852
H 7.5039 -1.5784 -1.9829
H 8.0382 -3.9470 -2.2602
H 6.0327 -4.8531 1.4222
H 5.4690 -2.4545 1.7261
H 4.3454 1.4103 -1.9255
H 4.8973 2.5865 -4.0267
H 9.0792 1.9025 -3.3465
H 8.5497 0.7057 -1.2495
