55
 
N 0.9790 0.0450 -0.0868
C 1.0339 1.3829 0.5394
C 0.1224 0.3835 -1.2659
C 0.3813 -0.9878 0.7027
C -0.6429 -0.7128 1.6374
C -1.2571 -1.7515 2.3408
C -0.8749 -3.0739 2.1097
C 0.1262 -3.3591 1.1769
C 0.7554 -2.3209 0.4794
Pd 3.0790 0.0450 -0.0868
P 5.5390 0.0450 -0.0868
C 6.2891 0.2812 -1.7100
C 6.0444 1.4564 -2.4383
C 6.3862 1.5291 -3.7958
C 6.9564 0.4263 -4.4382
C 7.2048 -0.7450 -3.7214
C 6.8753 -0.8193 -2.3647
C 5.9685 1.5629 0.8110
C 4.9658 2.3575 1.3836
C 5.2977 3.5014 2.1227
C 6.6360 3.8583 2.3045
C 7.6465 3.0576 1.7687
C 7.3180 1.9100 1.0318
C 6.0138 -1.5627 0.6017
C 5.0519 -2.5278 0.9312
C 5.4696 -3.7676 1.4399
C 6.8288 -4.0321 1.6249
C 7.7628 -3.0494 1.2964
O 8.9530 -3.2639 1.4536
N 7.3391 -1.8423 0.7923
H 0.6175 2.3341 0.1355
H 1.9890 1.7657 0.1189
H 1.4370 1.3529 1.5739
H -0.8590 -0.1501 -1.2070
H 0.6220 0.2034 -2.2269
H -0.3165 1.4155 -1.3588
H -0.9753 0.3015 1.8173
H -2.0399 -1.5305 3.0554
H -1.3629 -3.8775 2.6463
H 0.4053 -4.3872 0.9865
H 1.5141 -2.5560 -0.2560
H 5.5418 2.2958 -1.9766
H 6.1714 2.4253 -4.3633
H 7.1826 0.4690 -5.4968
H 7.6147 -1.6109 -4.2274
H 7.0142 -1.7655 -1.8614
H 3.9297 2.0838 1.2771
H 4.5176 4.1105 2.5610
H 6.8901 4.7480 2.8699
H 8.6838 3.3275 1.9313
H 8.1213 1.2964 0.6462
H 3.9954 -2.3235 0.7917
H 4.7440 -4.5303 1.6926
H 7.1527 -4.9903 2.0193
H 8.0575 -1.1252 0.5446
