67
 
P 0.9673 -0.0276 0.0904
C 0.0965 -1.7340 0.1644
C 0.7055 -2.4905 -1.0227
C 2.2532 -2.6218 -0.7932
C 2.6506 -3.3888 0.4849
C 1.8293 -2.9475 1.7125
C 0.3416 -2.7416 1.3742
C 0.3553 0.9630 1.6944
C 0.7222 0.4019 3.1020
C 2.2291 0.5473 3.4049
C 2.7224 2.0083 3.2740
C 2.2373 2.6562 1.9713
C 0.7179 2.4931 1.8387
C 0.7545 0.6320 -1.8147
C -0.6782 1.0295 -2.3795
C -1.2022 2.2894 -1.6806
C -0.2401 3.4863 -1.8417
C 1.2282 3.1249 -1.5351
C 1.6610 1.8410 -2.2171
Pd 3.4273 -0.0276 0.0904
N 5.5273 -0.0276 0.0904
C 6.1702 -0.2859 1.2625
C 7.5669 -0.1613 1.3475
C 8.2957 -0.3669 2.6440
C 8.2801 0.2030 0.1997
C 7.6019 0.4420 -0.9968
C 6.2085 0.3314 -1.0300
H -1.0027 -1.6110 0.0566
H 0.4346 -1.9173 -1.9132
H 0.2363 -3.4755 -1.2204
H 2.6723 -1.6668 -0.6289
H 2.8041 -2.9173 -1.7000
H 3.7285 -3.2033 0.7220
H 2.5296 -4.4733 0.3066
H 2.1910 -1.9912 2.0966
H 1.9836 -3.6875 2.5386
H -0.2151 -2.4817 2.2942
H -0.0526 -3.7513 1.0892
H -0.7539 0.9450 1.6318
H 0.3749 -0.6319 3.2296
H 0.1687 0.9880 3.8839
H 2.7740 -0.0777 2.6792
H 2.4552 0.1784 4.4353
H 3.8341 2.0487 3.2999
H 2.3560 2.6156 4.1332
H 2.7129 2.1655 1.1032
H 2.5301 3.7318 1.9681
H 0.2756 3.1418 1.0680
H 0.2451 2.9528 2.7446
H 1.1342 -0.1277 -2.5203
H -1.4193 0.2066 -2.3224
H -0.6361 1.2797 -3.4808
H -1.3061 2.0078 -0.6238
H -2.2022 2.6034 -2.0733
H -0.5764 4.3107 -1.1722
H -0.2906 3.8671 -2.8873
H 1.4059 2.9064 -0.5126
H 1.8817 3.9893 -1.7812
H 2.7251 1.5910 -1.9847
H 1.5792 2.0581 -3.3162
H 5.5858 -0.5496 2.1350
H 7.6058 -0.6674 3.4606
H 8.7805 0.5895 2.9371
H 9.0801 -1.1444 2.5317
H 9.3574 0.3136 0.2377
H 8.1516 0.7352 -1.8816
H 5.6678 0.5541 -1.9398
