43
 
P 0.9171 0.0452 0.0328
N 0.1086 1.3065 1.0264
C -1.3279 1.5591 1.0852
C 0.7638 1.4587 2.3428
N 0.3660 0.4881 -1.6079
C 0.8367 1.7736 -2.1288
C 0.6912 -0.5954 -2.5517
N 0.4426 -1.5012 0.8287
C 0.8261 -1.7068 2.2255
C -0.9660 -1.8919 0.6106
Pd 3.3771 0.0452 0.0328
N 5.4771 0.0452 0.0328
C 6.1434 -1.1363 0.0097
N 7.4955 -1.1549 0.1230
C 8.2079 -0.0012 0.2554
O 9.5528 -0.0326 0.4111
C 10.2748 -1.2024 0.5345
C 7.5364 1.2254 0.2528
C 6.1451 1.2218 0.1432
H -1.7361 1.7644 0.0797
H -1.4919 2.4929 1.6780
H -1.8629 0.7766 1.6424
H 1.8610 1.2730 2.2839
H 0.3158 0.8024 3.1045
H 0.6264 2.4844 2.7408
H 0.5299 2.6028 -1.4636
H 0.3341 1.9620 -3.1092
H 1.9329 1.7740 -2.3060
H 0.2118 -1.5461 -2.2389
H 1.7891 -0.7531 -2.6328
H 0.2901 -0.3668 -3.5648
H 1.8749 -1.3983 2.3985
H 0.7440 -2.7903 2.4640
H 0.1073 -1.2336 2.9195
H -1.2229 -1.9216 -0.4659
H -1.6777 -1.2396 1.1415
H -1.1475 -2.9164 1.0071
H 5.5949 -2.0645 -0.0682
H 11.3520 -0.9633 0.6458
H 10.1372 -1.8337 -0.3687
H 9.9427 -1.7653 1.4348
H 8.0739 2.1595 0.3596
H 5.5913 2.1512 0.1709
