101
 
P 0.9989 0.0875 -0.0483
C 0.0075 1.3267 1.1412
C 0.2526 1.1299 2.6839
C 1.6352 1.5947 3.1873
C 1.9322 3.0590 2.7649
C 1.6480 3.3126 1.2612
C 0.1965 2.8891 1.0057
C 0.7247 0.5608 -2.0469
C -0.6930 0.6677 -2.7898
C -1.4800 1.8052 -2.1684
C -0.8209 3.0888 -2.6271
C 0.7048 3.0946 -2.3217
C 1.3992 1.7975 -2.6696
C 0.2953 -1.5933 0.5941
C -1.2686 -1.6674 0.5135
C -1.7016 -1.4947 -0.9226
C -1.0353 -2.5036 -1.9260
C 0.4564 -2.8022 -1.6631
C 0.7682 -2.8713 -0.1725
Pd 3.4589 0.0875 -0.0483
P 5.9189 0.0875 -0.0483
N 6.7199 -1.4646 0.0555
C 6.0683 -2.1852 1.2032
C 4.4943 -2.2709 1.0688
C 6.6176 -3.6029 1.3776
C 8.1826 -1.3694 0.0581
C 8.6449 0.0791 -0.0171
C 10.1780 0.1156 -0.0247
C 8.1224 0.7242 -1.3544
N 6.6382 0.7458 -1.5553
C 6.2020 2.1782 -1.7921
C 6.8320 2.9130 -2.9902
C 4.7014 2.3143 -1.9429
N 6.5932 0.7779 1.4487
C 6.0764 2.1662 1.6442
C 4.5852 2.2155 1.6514
C 6.5640 2.9085 2.8900
C 8.0841 0.8260 1.2566
H -1.0675 1.1647 0.9882
H 0.0408 0.1013 3.0194
H -0.4714 1.7828 3.2281
H 2.3720 0.8515 2.8343
H 1.6743 1.5736 4.3028
H 2.9318 3.3893 3.1131
H 1.2715 3.7432 3.3275
H 2.2869 2.7800 0.5305
H 1.8050 4.3981 1.0622
H -0.2821 3.3294 0.1332
H -0.4114 3.4420 1.7557
H 1.2671 -0.2062 -2.6092
H -1.3656 -0.1758 -2.9185
H -0.5881 0.8346 -3.8912
H -1.4602 1.7193 -1.0731
H -2.5496 1.7765 -2.4726
H -1.3456 3.9419 -2.1529
H -0.9847 3.1477 -3.7274
H 0.9655 3.1431 -1.3003
H 1.1778 3.9783 -2.7823
H 2.4151 1.8042 -2.3719
H 1.4042 1.7242 -3.7878
H 0.5735 -1.7207 1.6571
H -1.7348 -0.8748 1.1349
H -1.6776 -2.6287 0.8784
H -1.3921 -0.4865 -0.9717
H -2.7947 -1.4275 -1.1038
H -1.1357 -2.2224 -3.0027
H -1.5997 -3.4446 -1.8331
H 1.1432 -2.0698 -2.0596
H 0.7417 -3.7253 -2.2131
H 1.8466 -3.0564 -0.0326
H 0.2231 -3.7602 0.2243
H 6.2805 -1.6532 2.1577
H 4.1623 -2.6415 0.0809
H 3.9904 -1.3217 1.2602
H 4.0803 -2.9293 1.8627
H 6.4169 -4.2141 0.4771
H 6.1414 -4.0681 2.2678
H 7.7020 -3.6032 1.5905
H 8.5575 -1.9359 -0.8236
H 8.6232 -1.8131 0.9687
H 10.5647 -0.4261 -0.9158
H 10.5789 -0.3724 0.8879
H 10.5384 1.1644 -0.0617
H 8.5595 0.2008 -2.2313
H 8.5629 1.7423 -1.3456
H 6.5433 2.8203 -1.0041
H 6.5615 2.4310 -3.9451
H 7.9293 3.0226 -2.9098
H 6.4463 3.9641 -2.9967
H 4.4296 1.8785 -2.9212
H 4.3892 3.3836 -1.8991
H 4.1294 1.7951 -1.1705
H 6.4203 2.8206 0.8758
H 4.2580 1.7034 2.5672
H 4.0837 1.7504 0.8155
H 4.3114 3.2841 1.5541
H 6.2164 2.4205 3.8188
H 6.1420 3.9448 2.8555
H 7.6614 3.0283 2.8858
H 8.5376 0.3852 2.1694
H 8.4652 1.8667 1.1794
