49
 
P 0.9309 0.0688 0.0222
O -0.0905 -1.0738 -0.7350
C 0.3591 -1.2087 -2.1149
C 1.8934 -1.4179 -2.3985
C -0.3677 -2.3522 -2.8129
O 0.4183 0.0704 1.6497
C 0.8236 -1.0668 2.3739
C 2.3455 -1.3343 2.3190
C 0.4153 -0.8022 3.8328
O 0.5961 1.3109 -1.1028
C 1.0539 2.5537 -0.6409
C 2.5945 2.5960 -0.6762
C 0.4712 3.6306 -1.5732
Pd 3.3909 0.0688 0.0222
N 5.4909 0.0688 0.0222
C 6.1579 -0.0386 -1.1543
N 7.5099 -0.1539 -1.1596
C 8.2221 -0.1568 0.0016
O 9.5670 -0.3167 -0.0126
C 10.2878 -0.5717 -1.1619
C 7.5503 -0.0156 1.2200
C 6.1590 0.0917 1.2038
H 0.0425 -0.3015 -2.6651
H 2.2894 -2.3701 -1.9836
H 2.5351 -0.5816 -2.0537
H 2.0634 -1.4501 -3.5013
H -0.0266 -3.3398 -2.4354
H -0.1484 -2.3055 -3.9061
H -1.4591 -2.2441 -2.6753
H 0.2547 -1.9531 2.0199
H 2.9040 -0.4396 2.6653
H 2.6908 -1.6024 1.2974
H 2.5905 -2.1915 2.9821
H 0.9529 0.0861 4.2358
H 0.6385 -1.6756 4.4798
H -0.6750 -0.5904 3.8970
H 0.6606 2.7906 0.3777
H 2.9745 2.2425 -1.6503
H 3.0294 2.0154 0.1299
H 2.9161 3.6404 -0.4820
H 0.7861 3.4503 -2.6228
H 0.8157 4.6413 -1.2651
H -0.6427 3.6324 -1.5412
H 5.6107 -0.0635 -2.0861
H 11.3654 -0.6559 -0.9134
H 10.1497 0.2547 -1.8905
H 9.9550 -1.5295 -1.6200
H 8.0871 -0.0157 2.1607
H 5.6060 0.1687 2.1308
