56
 
P 0.9414 -0.0623 0.0519
C 0.1132 -0.3064 -1.5318
C -1.2702 -0.3726 -1.7254
C -1.7853 -0.5593 -3.0155
C -0.9268 -0.6893 -4.1133
C 0.4526 -0.6109 -3.9304
C 0.9687 -0.4127 -2.6489
C 0.5076 -1.7043 0.6940
C 0.8485 -2.9062 0.0611
C 0.4705 -4.1334 0.6332
C -0.2385 -4.1696 1.8399
C -0.5849 -2.9793 2.4762
C -0.2202 -1.7548 1.9055
C 0.3764 1.5386 0.7580
C -0.9918 1.7907 0.9785
C -1.4066 2.9917 1.5638
C -0.4720 3.9446 1.9334
C 0.8698 3.6966 1.6913
O 1.6752 4.5587 1.9870
N 1.2704 2.4992 1.1150
Pd 3.4014 -0.0623 0.0519
N 5.5014 -0.0623 0.0519
C 6.2558 0.9000 0.4181
C 5.7526 2.1595 0.9552
C 4.5698 2.1362 1.6845
C 4.1328 3.3038 2.3094
C 4.7799 4.5240 2.0829
C 5.9315 4.5587 1.2968
C 6.4474 3.3692 0.7724
N 7.6212 0.6102 0.2523
C 7.7126 -0.7963 -0.0199
C 6.2864 -1.1525 -0.4668
H -1.9525 -0.2837 -0.9020
H -2.8540 -0.6084 -3.1648
H -1.3288 -0.8491 -5.1057
H 1.1213 -0.7047 -4.7794
H 2.0465 -0.3485 -2.5299
H 1.3942 -2.8940 -0.8697
H 0.7278 -5.0624 0.1446
H -0.5209 -5.1181 2.2834
H -1.1345 -3.0082 3.4122
H -0.5046 -0.8458 2.4235
H -1.7474 1.0757 0.7227
H -2.4551 3.1912 1.7372
H -0.7835 4.8761 2.3968
H 2.2660 2.2918 0.9269
H 4.0012 1.2098 1.7780
H 3.2685 3.2504 2.9479
H 4.3865 5.4397 2.5091
H 6.4306 5.5015 1.1095
H 7.3586 3.4017 0.1899
H 8.3944 1.1974 0.5980
H 7.9267 -1.2868 0.9586
H 8.4896 -1.0732 -0.7599
H 5.9815 -2.1405 -0.0613
H 6.1879 -1.1334 -1.5733
