87
 
P 0.9272 0.0648 -0.0225
C 0.4204 -0.3441 -1.9358
C -1.0218 -0.5313 -2.6063
C -1.8073 0.7418 -2.4674
C -1.1007 1.8564 -3.2727
C 0.4206 1.9644 -3.0162
C 1.1119 0.5970 -2.9613
C 0.4987 -1.4117 1.2135
C -1.0338 -1.6780 1.4390
C -1.6208 -2.1608 0.1432
C -0.9692 -3.4882 -0.3118
C 0.5760 -3.5017 -0.2150
C 1.0888 -2.8240 1.0433
C 0.4166 1.8831 0.4904
C -1.0629 2.4789 0.3837
C -2.1073 1.7813 1.2706
C -1.6610 1.8476 2.7480
C -0.1822 1.4788 2.9622
C 0.7833 2.1631 1.9629
Pd 3.3872 0.0648 -0.0225
P 5.8472 0.0648 -0.0225
C 6.6181 1.2324 -1.1613
C 7.4585 2.2915 -0.7751
C 7.8460 3.2561 -1.7148
C 7.3915 3.1801 -3.0345
C 6.5585 2.1318 -3.4243
C 6.1762 1.1641 -2.4941
C 6.2069 0.6160 1.6590
C 5.1610 0.9045 2.5470
C 5.4406 1.2819 3.8669
C 6.7647 1.3780 4.3055
C 7.8117 1.0854 3.4291
C 7.5353 0.6952 2.1146
C 6.2225 -1.5535 -0.5978
C 5.1668 -2.4124 -0.8977
C 5.4876 -3.7408 -1.2416
C 6.8281 -4.1676 -1.2718
C 7.8440 -3.2606 -0.9656
O 9.0112 -3.6165 -0.9737
N 7.5211 -1.9712 -0.6355
H 0.9170 -1.2977 -2.1517
H -1.6464 -1.3993 -2.3395
H -0.9409 -0.7622 -3.6945
H -1.8882 0.8594 -1.3915
H -2.8498 0.6390 -2.8343
H -1.5830 2.8418 -3.0925
H -1.2463 1.6013 -4.3432
H 0.5993 2.4674 -2.0761
H 0.8800 2.5962 -3.8074
H 2.2032 0.6745 -2.7727
H 1.0219 0.1549 -3.9889
H 0.9395 -1.1314 2.1840
H -1.5559 -0.8003 1.8017
H -1.2579 -2.4374 2.2176
H -1.3828 -1.3139 -0.4346
H -2.7286 -2.2405 0.1228
H -1.2621 -3.7461 -1.3550
H -1.3788 -4.2712 0.3582
H 1.0400 -2.9748 -1.0438
H 0.9417 -4.5497 -0.2613
H 2.1931 -2.8075 1.0938
H 0.7476 -3.4423 1.9167
H 1.0535 2.5608 -0.0981
H -1.4354 2.6305 -0.6344
H -1.0530 3.5350 0.7360
H -2.2826 0.7832 0.8584
H -3.1098 2.2655 1.2063
H -2.3105 1.2005 3.3855
H -1.7933 2.8926 3.0912
H -0.1072 0.4128 2.8897
H 0.1154 1.7243 4.0019
H 1.8348 1.8736 2.1443
H 0.7094 3.2615 2.1446
H 7.7867 2.4191 0.2410
H 8.4754 4.0828 -1.4130
H 7.6689 3.9425 -3.7513
H 6.1853 2.0826 -4.4399
H 5.4902 0.3844 -2.8058
H 4.1317 0.8216 2.2269
H 4.6315 1.4948 4.5534
H 6.9799 1.6714 5.3257
H 8.8372 1.1539 3.7711
H 8.3593 0.4567 1.4542
H 4.1245 -2.0163 -0.8211
H 4.7090 -4.4545 -1.4680
H 7.0807 -5.1934 -1.5188
H 8.2883 -1.3058 -0.3814
