62
 
P 0.9073 0.0259 -0.0273
C 0.0884 -0.3514 1.5479
C -1.2906 -0.2723 1.7289
C -1.8544 -0.5770 2.9764
C -1.0493 -0.9861 4.0460
C 0.3288 -1.1020 3.8718
C 0.8981 -0.7818 2.6316
C 0.3467 1.7379 -0.1630
C 0.7274 2.7397 0.7260
C 0.1881 4.0284 0.5977
C -0.7246 4.3246 -0.4227
C -1.0777 3.3412 -1.3456
C -0.5411 2.0542 -1.2223
C 0.5408 -1.3020 -1.2291
C -0.2184 -2.4462 -0.9092
C -0.4775 -3.4249 -1.8851
C 0.0072 -3.2729 -3.1864
C 0.7471 -2.1389 -3.5205
C 1.0133 -1.1612 -2.5506
Pd 3.3673 0.0259 -0.0273
P 5.8273 0.0259 -0.0273
C 6.7558 -1.2814 -0.8762
C 6.2537 1.4969 -0.9711
C 5.2391 2.2880 -1.5130
C 5.5575 3.4359 -2.2453
C 6.8933 3.8007 -2.4402
C 7.9161 3.0221 -1.8928
C 7.6007 1.8731 -1.1559
C 6.2283 0.0503 1.7200
C 5.1955 -0.0364 2.6553
C 5.4781 0.0244 4.0227
C 6.7982 0.1674 4.4611
C 7.8406 0.2268 3.5311
C 7.5595 0.1645 2.1602
H -1.9198 0.0302 0.9086
H -2.9215 -0.4976 3.1141
H -1.4947 -1.2194 5.0067
H 0.9488 -1.4394 4.6992
H 1.9718 -0.8886 2.5260
H 1.4283 2.5181 1.5147
H 0.4692 4.7985 1.2993
H -1.1557 5.3160 -0.4997
H -1.7762 3.5762 -2.1447
H -0.8438 1.3046 -1.9478
H -0.6185 -2.5929 0.0825
H -1.0578 -4.3054 -1.6378
H -0.1934 -4.0308 -3.9372
H 1.1126 -2.0199 -4.5345
H 1.5857 -0.2899 -2.8407
H 6.3942 -1.3200 -1.9301
H 6.4290 -2.2443 -0.4173
H 7.8503 -1.1893 -0.8316
H 4.2036 2.0176 -1.3620
H 4.7660 4.0427 -2.6615
H 7.1337 4.6879 -3.0127
H 8.9505 3.3118 -2.0417
H 8.4094 1.2845 -0.7396
H 4.1738 -0.1388 2.3197
H 4.6716 -0.0296 4.7410
H 7.0121 0.2317 5.5205
H 8.8630 0.3297 3.8750
H 8.3782 0.2142 1.4532
