69
 
P 1.0476 -0.0753 -0.0455
C 0.2417 -0.1556 -1.6541
C -1.1381 -0.2036 -1.8644
C -1.6374 -0.3030 -3.1719
C -0.7655 -0.3510 -4.2673
C 0.6109 -0.2689 -4.0650
C 1.1112 -0.1649 -2.7665
C 0.6065 -1.7678 0.4249
C 0.9258 -2.9004 -0.3317
C 0.5500 -4.1752 0.1244
C -0.1311 -4.3267 1.3389
C -0.4566 -3.2038 2.0967
C -0.0984 -1.9325 1.6397
C 0.5707 1.3805 0.9088
C -0.7895 1.6477 1.1870
C -1.1582 2.7656 1.9426
C -0.1751 3.6190 2.4409
C 1.1805 3.3424 2.1989
C 1.5609 2.2188 1.4327
Pd 3.5076 -0.0753 -0.0455
P 5.9676 -0.0753 -0.0455
C 6.5563 1.2681 -1.1529
C 6.2480 2.6140 -0.8500
C 6.4855 3.6371 -1.7841
C 7.0231 3.3360 -3.0360
F 7.2095 4.3189 -3.9550
C 7.3379 2.0151 -3.3523
C 7.1066 0.9889 -2.4241
C 6.5306 0.5080 1.5806
C 5.6517 0.7778 2.6479
C 6.1647 1.1557 3.9044
C 7.5469 1.2401 4.1090
F 8.0426 1.6194 5.3146
C 8.4205 0.9172 3.0724
C 7.9162 0.5544 1.8213
C 6.4887 -1.6421 -0.8062
C 5.5832 -2.6692 -1.1275
C 6.0724 -3.9211 -1.5590
C 7.4512 -4.1423 -1.6834
F 7.9240 -5.3565 -2.0663
C 8.3463 -3.1137 -1.3979
C 7.8690 -1.8781 -0.9584
H -1.8222 -0.1730 -1.0347
H -2.7032 -0.3528 -3.3382
H -1.1538 -0.4493 -5.2733
H 1.2896 -0.2945 -4.9115
H 2.1876 -0.1051 -2.6316
H 1.4547 -2.7970 -1.2668
H 0.7900 -5.0517 -0.4597
H -0.4079 -5.3121 1.6956
H -0.9834 -3.3198 3.0390
H -0.3674 -1.0786 2.2515
H -1.5765 0.9964 0.8371
H -2.2060 2.9692 2.1465
H -0.4699 4.4869 3.0232
H 1.9275 4.0049 2.6134
H 2.6171 1.9680 1.2405
H 5.7814 2.8789 0.0892
H 6.2213 4.6633 -1.5549
H 7.7286 1.7823 -4.3360
H 7.3045 -0.0194 -2.7466
H 4.5804 0.6831 2.5240
H 5.4970 1.3762 4.7283
H 9.4915 0.9423 3.2370
H 8.6183 0.2872 1.0472
H 4.5136 -2.5158 -1.0080
H 5.3919 -4.7345 -1.7777
H 9.4140 -3.2782 -1.4924
H 8.5881 -1.1109 -0.7152
