25
 
P 1.0492 0.1867 0.0280
F -0.3806 0.7491 0.6812
F 0.7401 0.8149 -1.4975
F 0.6872 -1.4353 0.3039
Pt 3.4388 0.0589 -0.1907
P 5.7896 0.0761 0.0794
C 6.6428 0.3394 1.6429
C 6.3442 -1.5790 -0.4629
C 6.3166 1.4244 -1.0118
C 5.3592 2.1675 -1.7125
C 5.7692 3.0718 -2.7101
C 7.1296 3.2591 -2.9872
C 8.0906 2.5644 -2.2506
C 7.6889 1.6423 -1.2726
H 6.2648 -0.4481 2.3350
H 6.2628 1.3068 2.0427
H 7.7400 0.3275 1.5839
H 5.9948 -2.3895 0.1997
H 7.4573 -1.5878 -0.5122
H 5.9885 -1.7624 -1.5022
H 4.3003 2.0034 -1.5054
H 5.0344 3.6140 -3.2894
H 7.4392 3.9375 -3.7764
H 9.1443 2.7207 -2.4626
H 8.4536 1.0789 -0.7522
