81
 
P 1.0443 -0.0130 0.0887
C 0.2952 -1.6857 -0.1942
C -1.2212 -1.7850 -0.1676
C 0.8245 -2.2601 -1.5218
C 0.4948 0.5673 1.7444
C 0.9719 -0.3056 2.8991
C 0.9382 2.0228 1.9568
C 0.5750 0.9352 -1.3915
Pt 3.5043 -0.0130 0.0887
P 5.9643 -0.0130 0.0887
C 6.5590 1.5635 -0.8168
C 6.0021 1.7105 -2.2765
C 4.4792 2.0003 -2.3311
C 4.1422 3.2737 -1.5519
C 4.6127 3.0978 -0.1107
C 6.1403 2.8713 -0.0877
C 6.6601 -0.0464 1.8876
C 6.2158 -1.2699 2.7629
C 6.8338 -2.6209 2.3070
C 8.3582 -2.5941 2.2904
C 8.8530 -1.3867 1.4998
C 8.2248 -0.0654 2.0049
C 6.3181 -1.4868 -0.9543
C 7.5244 -1.6447 -1.7305
C 8.6214 -0.6156 -1.9122
C 7.8260 -2.8874 -2.2968
C 7.0221 -3.9965 -2.0919
C 7.4228 -5.3152 -2.6810
C 5.8678 -3.8761 -1.3208
C 5.4895 -2.6404 -0.7656
C 4.2378 -2.6208 0.0966
H 0.6907 -2.3465 0.6097
H -1.6726 -1.1259 -0.9327
H -1.6097 -1.5539 0.8427
H -1.5059 -2.8390 -0.3988
H 0.4547 -1.6868 -2.3909
H 0.5282 -3.3226 -1.6376
H 1.9200 -2.2419 -1.5794
H -0.6166 0.5534 1.7314
H 2.0715 -0.2309 3.0275
H 0.6788 -1.3605 2.7385
H 0.4797 0.0421 3.8358
H 2.0458 2.1063 1.9485
H 0.5598 2.4070 2.9289
H 0.5293 2.6789 1.1576
H -0.5355 0.9773 -1.4384
H 0.9800 0.5084 -2.3251
H 0.9414 1.9756 -1.2745
H 7.6507 1.5981 -0.8744
H 6.2462 0.8326 -2.9060
H 6.5082 2.5860 -2.7559
H 3.8962 1.1555 -1.8794
H 4.1792 2.1665 -3.3949
H 3.0466 3.4660 -1.5861
H 4.6428 4.1666 -1.9992
H 4.0811 2.2355 0.3416
H 4.3517 4.0137 0.4600
H 6.5267 2.8822 0.9465
H 6.6041 3.7455 -0.6114
H 6.2939 0.8759 2.3843
H 5.1164 -1.3244 2.8408
H 6.5709 -1.1184 3.8078
H 6.5442 -2.8548 1.3020
H 6.4770 -3.4675 2.9290
H 8.7398 -3.5300 1.8118
H 8.7438 -2.5475 3.3262
H 8.5753 -1.5568 0.4708
H 9.9626 -1.3544 1.5374
H 8.6789 0.8103 1.5041
H 8.5118 0.0094 3.0837
H 8.8333 -0.0311 -1.0075
H 8.4869 -0.0276 -2.8395
H 9.6055 -1.1308 -2.0037
H 8.7384 -3.0088 -2.8707
H 8.3482 -5.2215 -3.2914
H 6.6093 -5.6754 -3.3401
H 7.6182 -6.0551 -1.8761
H 5.2710 -4.7616 -1.1344
H 3.7787 -3.6262 0.2056
H 3.5215 -1.9729 -0.3704
H 4.3520 -2.2079 1.1080
