55
 
P 0.9251 0.0533 -0.0394
C 0.1243 -0.4433 1.5041
C -1.2512 -0.3774 1.7162
C -1.7872 -0.7398 2.9586
C -0.9584 -1.1911 4.0003
C -1.5370 -1.5264 5.3471
C 0.4197 -1.3045 3.7770
C 0.9578 -0.9242 2.5409
C 0.3447 1.7563 -0.0738
C 0.7158 2.7043 0.8735
C 0.1346 3.9787 0.8466
C -0.8203 4.3165 -0.1296
C -1.5276 5.6414 -0.0815
C -1.1388 3.3872 -1.1279
C -0.5580 2.1150 -1.1006
C 0.5807 -1.2904 -1.1732
C -0.7426 -1.6513 -1.4987
C -0.9940 -2.7223 -2.3595
C 0.0719 -3.4392 -2.9181
C -0.2064 -4.6530 -3.7702
C 1.3982 -3.0329 -2.6423
C 1.6595 -1.9571 -1.7616
Pt 3.3851 0.0533 -0.0394
N 5.4851 0.0533 -0.0394
C 6.1279 1.0186 0.6685
F 5.4048 1.9425 1.3472
C 7.5241 1.0568 0.6947
C 8.2448 0.0907 -0.0114
F 9.6004 0.1098 0.0031
C 7.5641 -0.8949 -0.7321
C 6.1654 -0.8957 -0.7351
F 5.4834 -1.8392 -1.4284
H -1.9030 -0.0247 0.9344
H -2.8530 -0.6593 3.1108
H -2.6258 -1.3086 5.3791
H -1.0471 -0.9017 6.1255
H -1.3812 -2.5974 5.5924
H 1.0755 -1.6665 4.5651
H 2.0317 -1.0068 2.3998
H 1.4298 2.4470 1.6405
H 0.4091 4.6939 1.6071
H -1.2157 6.2273 0.8089
H -2.6217 5.4589 0.0107
H -1.3379 6.2401 -0.9951
H -1.8607 3.6345 -1.9021
H -0.8480 1.4010 -1.8658
H -1.5896 -1.1206 -1.0851
H -2.0211 -3.0020 -2.5787
H -1.2953 -4.8830 -3.8259
H 0.2844 -5.5327 -3.3013
H 0.1780 -4.5308 -4.8030
H 2.2199 -3.5720 -3.0936
H 2.6872 -1.6223 -1.4988
H 8.0402 1.8256 1.2555
H 8.1141 -1.6481 -1.2813
