59
 
P 1.0540 -0.0782 -0.0312
C 0.2723 0.3239 -1.6483
C -1.1075 0.4112 -1.9688
C -2.2071 0.2071 -0.9792
C -1.4908 0.7064 -3.2967
C -0.5415 0.8855 -4.3037
C 0.8085 0.8376 -3.9932
C 1.2062 0.5967 -2.6803
C 0.5258 -1.8460 -0.0001
C 0.8010 -2.8451 -0.9714
C 1.5647 -2.5943 -2.2202
C 0.3342 -4.1605 -0.7817
C -0.3980 -4.5100 0.3488
C -0.6954 -3.5437 1.3009
C -0.2435 -2.2295 1.1285
C 0.6218 1.1052 1.3024
C 0.9979 0.8990 2.6678
C 1.8885 -0.2171 3.1423
C 0.5099 1.7665 3.6643
C -0.3092 2.8414 3.3362
C -0.6536 3.0685 2.0069
C -0.1978 2.2086 1.0002
Pt 3.5140 -0.0782 -0.0312
C 5.6640 -0.0782 -0.0312
N 6.5147 0.5325 0.8421
C 6.2443 1.3448 2.0209
C 7.7626 0.2387 0.4140
Cl 9.2596 0.7656 1.1748
C 7.6742 -0.5389 -0.7094
Cl 9.0371 -1.1661 -1.6307
N 6.3694 -0.7407 -0.9836
C 5.8345 -1.5202 -2.0951
H -1.8371 -0.1440 -0.0006
H -2.9148 -0.5424 -1.3896
H -2.7501 1.1677 -0.8377
H -2.5372 0.7723 -3.5647
H -0.8513 1.0660 -5.3262
H 1.5511 0.9777 -4.7719
H 2.2735 0.5745 -2.4796
H 1.9804 -1.5983 -2.2360
H 0.8829 -2.7501 -3.0873
H 2.4397 -3.2631 -2.2816
H 0.5485 -4.9269 -1.5164
H -0.7367 -5.5317 0.4817
H -1.2757 -3.8193 2.1753
H -0.5020 -1.5109 1.8963
H 2.4125 -0.7284 2.3141
H 1.2924 -0.9488 3.7294
H 2.6678 0.2007 3.8190
H 0.7690 1.6123 4.7070
H -0.6755 3.4988 4.1167
H -1.2926 3.9064 1.7605
H -0.5105 2.4024 -0.0139
H 5.1582 1.4622 2.1950
H 6.7179 2.3437 1.8888
H 6.7190 0.8660 2.9075
H 6.6590 -1.9325 -2.7180
H 5.2034 -0.8777 -2.7413
H 5.2408 -2.3712 -1.7057
