46
 
P 1.0417 -0.0680 -0.0603
C 0.2729 1.5616 -0.0293
C -1.0951 1.8422 -0.1190
C -1.5373 3.1720 -0.0819
C -0.6243 4.2236 0.0688
Cl -1.1830 5.8859 0.1021
C 0.7363 3.9479 0.1957
C 1.1798 2.6274 0.1422
C 0.6286 -0.6128 -1.7328
C 1.6415 -0.9682 -2.6293
C 1.3156 -1.4674 -3.8987
C -0.0229 -1.6206 -4.2792
Cl -0.4252 -2.2010 -5.8858
C -1.0394 -1.3198 -3.3723
C -0.7165 -0.8318 -2.1038
C 0.5844 -0.9451 1.4304
C -0.7713 -1.2223 1.6738
C -1.1599 -1.9187 2.8167
C -0.1942 -2.3570 3.7240
Cl -0.7049 -3.1950 5.1816
C 1.1690 -2.1242 3.4648
C 1.5678 -1.4177 2.3084
Pt 3.5017 -0.0680 -0.0603
N 5.6017 -0.0680 -0.0603
C 6.2418 0.3509 -1.1843
C 7.6340 0.2706 -1.2707
F 8.2738 0.6529 -2.4034
C 8.3566 -0.2294 -0.1855
C 7.6818 -0.6349 0.9690
C 6.2860 -0.5498 1.0117
H -1.8243 1.0629 -0.2183
H -2.5927 3.3856 -0.1689
H 1.4514 4.7523 0.3326
H 2.2441 2.4374 0.2461
H 2.6798 -0.8796 -2.3365
H 2.1033 -1.7402 -4.5867
H -2.0790 -1.4715 -3.6449
H -1.5298 -0.6553 -1.4212
H -1.5352 -0.9085 0.9777
H -2.2126 -2.1131 2.9942
H 1.9068 -2.4915 4.1658
H 2.6281 -1.2268 2.0694
H 5.6632 0.7135 -2.0241
H 9.4348 -0.3094 -0.2416
H 8.2339 -1.0264 1.8134
H 5.7463 -0.8836 1.8878
