32
 
P 1.1900 0.2357 -0.1778
Cl -0.4932 0.0026 -1.3443
Cl 0.7058 -1.3081 1.1710
Cl 0.7754 2.1611 0.4827
Pt 3.5749 0.3252 0.0698
P 5.9148 0.0729 -0.0047
C 6.7432 -1.4486 -0.5570
C 6.3693 1.3110 -1.2593
C 5.3635 2.0423 -1.9156
C 5.7265 2.9636 -2.9282
C 7.0736 3.1724 -3.2645
C 8.0750 2.5002 -2.5619
C 7.7280 1.5777 -1.5614
C 6.4177 0.3587 1.7077
C 5.4560 0.5911 2.7018
C 5.8524 1.0072 3.9795
C 7.2074 1.1568 4.2854
C 8.1745 0.8709 3.3188
C 7.7833 0.4846 2.0295
H 6.3621 -1.6832 -1.5800
H 6.3737 -2.2782 0.0881
H 7.8419 -1.4085 -0.5559
H 4.3055 1.8727 -1.6211
H 4.9690 3.5175 -3.4658
H 7.3410 3.8624 -4.0626
H 9.1187 2.6886 -2.8040
H 8.5268 1.0698 -1.0353
H 4.4009 0.4970 2.4850
H 5.1067 1.2372 4.7285
H 7.5041 1.5004 5.2697
H 9.2249 0.9796 3.5631
H 8.5480 0.3196 1.2813
