76
 
P 0.9675 0.0373 0.0869
C 0.1541 -1.5647 0.1611
C -1.2208 -1.7130 0.2519
C -1.7686 -2.9852 0.4145
C -0.9469 -4.1327 0.4804
O -1.4549 -5.3670 0.7304
C -2.7780 -5.6045 1.0457
C 0.4326 -3.9880 0.3088
C 0.9741 -2.7117 0.1454
C 0.4353 0.4620 1.7594
C 0.8288 -0.2205 2.9149
C 0.2648 0.1251 4.1520
C -0.7022 1.1509 4.2479
O -1.3204 1.4639 5.4176
C -1.1348 0.7948 6.6105
C -1.0547 1.8577 3.0949
C -0.4866 1.5202 1.8661
C 0.5720 1.0421 -1.3602
C -0.2255 0.5511 -2.4043
C -0.4879 1.3467 -3.5236
C 0.0371 2.6511 -3.6184
O -0.1633 3.4327 -4.7134
C -0.7749 3.0096 -5.8786
C 0.7995 3.1520 -2.5541
C 1.0652 2.3528 -1.4351
Pt 3.4275 0.0373 0.0869
C 5.5775 0.0373 0.0869
N 6.2790 0.9373 -0.4869
C 5.7242 2.0701 -1.2080
C 4.7932 1.5970 -2.3181
C 4.9323 2.9705 -0.2527
C 7.6945 0.6848 -0.3002
C 7.7273 -0.4261 0.7641
N 6.3707 -0.9073 0.7694
C 5.9508 -2.2299 1.2109
C 6.3601 -2.5119 2.6582
C 4.4415 -2.4217 1.0331
H -1.8597 -0.8456 0.2258
H -2.8374 -3.0603 0.5156
H -2.9301 -6.6782 1.2693
H -3.4221 -5.3167 0.1894
H -3.0663 -5.0148 1.9460
H 1.0905 -4.8544 0.3320
H 2.0385 -2.6228 0.0307
H 1.5473 -1.0255 2.8631
H 0.5682 -0.4264 5.0291
H -1.7919 1.2277 7.3920
H -0.0784 0.8936 6.9345
H -1.3955 -0.2803 6.4908
H -1.7905 2.6546 3.1400
H -0.8014 2.0682 0.9854
H -0.6441 -0.4452 -2.3699
H -1.0960 0.9347 -4.3169
H -0.7988 3.8364 -6.6168
H -1.8179 2.6929 -5.6693
H -0.2054 2.1605 -6.3183
H 1.2014 4.1580 -2.5963
H 1.6623 2.7561 -0.6280
H 6.5593 2.6704 -1.6382
H 3.9276 1.0517 -1.8359
H 5.3678 0.9637 -3.0323
H 4.4140 2.4771 -2.8827
H 4.0639 2.4141 0.1643
H 4.5525 3.8624 -0.7958
H 5.5793 3.3165 0.5806
H 8.2579 1.5724 0.0608
H 8.1096 0.3239 -1.2662
H 7.8999 0.0287 1.7678
H 8.4969 -1.1993 0.5620
H 6.4764 -2.9767 0.5729
H 5.8560 -1.8125 3.3538
H 7.4617 -2.4243 2.7741
H 6.0829 -3.5566 2.9257
H 3.8635 -1.6963 1.6429
H 4.1631 -3.4590 1.3249
H 4.1955 -2.2898 -0.0383
