117
 
P 1.0477 0.0290 -0.0830
C 0.5208 -1.7593 -0.7015
C -0.6572 -2.1526 -1.4329
C -1.7468 -1.2121 -1.7964
C -0.8530 -3.5049 -1.8723
C 0.0896 -4.5065 -1.6136
C -0.0286 -5.9635 -1.9524
C 1.2219 -4.1622 -0.9706
C 1.4290 -2.8616 -0.5504
C 2.6015 -2.7663 0.2036
C 0.3605 0.0038 1.7303
C 1.1557 0.4422 2.8729
C 2.5741 0.9274 2.8733
C 0.6033 0.5776 4.1606
C -0.7275 0.3565 4.4129
C -1.3095 0.5913 5.7744
C -1.5384 -0.0355 3.3804
C -1.0513 -0.2105 2.0681
C -2.1628 -0.5665 1.1360
C 0.6834 1.5140 -1.2886
C 0.1389 1.5098 -2.6523
C -0.0598 0.3611 -3.5839
C -0.2650 2.7008 -3.2932
C -0.1409 3.9356 -2.7044
C -0.6004 5.1592 -3.4696
C 0.4524 4.0036 -1.4462
C 0.8838 2.8343 -0.7626
C 1.6042 3.0407 0.5280
Pt 3.5077 0.0290 -0.0830
P 5.9677 0.0290 -0.0830
C 6.8814 -0.4097 -1.6969
C 6.3179 -1.7716 -2.1407
C 4.7969 -1.6369 -2.3604
C 4.4491 -0.6062 -3.4299
C 5.1975 0.7381 -3.2378
C 6.6834 0.5272 -2.9359
C 6.6587 1.8283 0.1189
C 6.3143 2.4734 1.5088
C 7.0007 1.7339 2.6818
C 8.5347 1.6999 2.5184
C 8.9456 1.2537 1.1128
C 8.2174 2.0004 0.0095
C 6.0984 -1.6763 1.0843
C 5.0112 -2.3061 1.8836
C 3.7981 -1.6760 2.4081
C 5.0517 -3.6151 2.4242
C 6.1587 -4.3809 2.3736
C 6.1320 -5.7881 2.9047
C 7.2946 -3.7926 1.8896
C 7.2990 -2.4973 1.2857
C 8.6714 -2.0868 0.9698
H -1.5014 -0.1874 -1.4621
H -2.7068 -1.5242 -1.3577
H -1.8927 -1.2773 -2.8852
H -1.7478 -3.7793 -2.4096
H -0.9405 -6.1926 -2.5247
H -0.0314 -6.5425 -0.9966
H 0.8748 -6.2929 -2.5183
H 1.9504 -4.9499 -0.7591
H 3.2928 -3.6401 0.2425
H 2.0331 -2.6978 1.1252
H 3.1476 -1.9200 -0.1018
H 3.0437 0.9156 1.8881
H 3.1298 0.3980 3.6697
H 2.6376 1.9771 3.1966
H 1.2186 0.9168 4.9877
H -0.5347 0.9179 6.4996
H -1.7781 -0.3435 6.1410
H -2.0796 1.3921 5.7103
H -2.5921 -0.1637 3.6165
H -3.1175 -0.8278 1.6518
H -1.9033 -1.5094 0.6581
H -2.4318 0.3067 0.5039
H 0.3134 -0.5639 -3.1481
H 0.5046 0.5076 -4.5304
H -1.1310 0.3518 -3.9086
H -0.6991 2.6705 -4.2928
H -1.0019 4.8937 -4.4764
H 0.2573 5.8401 -3.6394
H -1.4142 5.6926 -2.9346
H 0.5958 4.9817 -1.0015
H 1.5487 4.0826 0.8969
H 2.6730 2.7726 0.3560
H 1.1704 2.4242 1.3096
H 7.9731 -0.4785 -1.5503
H 6.5428 -2.5207 -1.3590
H 6.7921 -2.1301 -3.0795
H 4.3546 -1.2540 -1.4777
H 4.3093 -2.6162 -2.5248
H 3.3503 -0.4136 -3.4074
H 4.7153 -1.0680 -4.3962
H 4.7882 1.3169 -2.3847
H 5.0740 1.3574 -4.1556
H 7.1900 1.5080 -2.8245
H 7.1591 0.0525 -3.8326
H 6.2149 2.4579 -0.6757
H 5.2218 2.5242 1.6801
H 6.6889 3.5278 1.5311
H 6.5890 0.7072 2.7247
H 6.7715 2.2291 3.6546
H 8.9833 1.0200 3.2833
H 8.9605 2.7107 2.6856
H 8.6256 0.2660 0.9362
H 10.0536 1.2979 1.0066
H 8.5990 1.6552 -0.9680
H 8.5088 3.0714 0.1061
H 3.4421 -1.0066 1.6676
H 4.0074 -1.4002 3.4546
H 2.9933 -2.3710 2.7630
H 4.2008 -4.0668 2.9394
H 5.1065 -6.1013 3.2127
H 6.8053 -5.8879 3.7772
H 6.4423 -6.4732 2.0880
H 8.1996 -4.3781 1.9957
H 9.4225 -2.8966 1.0350
H 8.9794 -1.4571 1.8378
H 8.7062 -1.6893 -0.0373
