78
 
P 1.0500 0.0819 -0.0282
C 0.3024 -1.6614 0.5204
C -1.2325 -1.7621 0.5342
C 0.7341 -2.9121 -0.3227
C 0.8350 -2.0162 1.9295
C 0.5599 1.4052 1.4128
C 1.2474 1.0727 2.7468
C 0.9220 2.9356 1.2770
C -0.9765 1.5205 1.6142
C 0.5829 0.4030 -1.8240
C 1.1140 1.7276 -2.5381
C 2.6534 1.7036 -2.4957
C 0.6416 1.7847 -4.0036
C 0.6296 3.0592 -1.9506
Pt 3.5100 0.0819 -0.0282
P 5.9700 0.0819 -0.0282
C 6.6436 -0.5571 1.5255
C 6.3565 -1.8915 1.8754
C 6.6212 -2.3606 3.1675
C 7.1667 -1.5026 4.1234
C 7.4746 -0.1843 3.7810
C 7.2180 0.2889 2.4900
C 6.4350 -1.0864 -1.3149
C 5.4609 -1.7297 -2.0898
C 5.8461 -2.6181 -3.1034
C 7.2017 -2.8562 -3.3545
C 8.1760 -2.1941 -2.6044
C 7.7953 -1.3108 -1.5889
C 6.4521 1.8213 -0.0839
C 5.4860 2.8244 -0.1546
C 5.8813 4.1578 -0.2746
C 7.2364 4.4869 -0.3123
C 8.1867 3.4677 -0.2272
O 9.3751 3.7393 -0.2575
N 7.7785 2.1585 -0.1201
H -1.6491 -1.7085 -0.4866
H -1.7391 -1.0479 1.1450
H -1.5443 -2.7162 1.0210
H 0.4648 -2.8413 -1.3914
H 0.1724 -3.8141 0.0538
H 1.7928 -3.2262 -0.1941
H 0.2630 -1.4958 2.6874
H 1.9414 -1.8562 1.9958
H 0.6360 -3.0647 2.2378
H 2.3383 0.9590 2.5820
H 0.8460 0.2382 3.2869
H 1.0680 1.8622 3.5089
H 2.0067 3.1633 1.2298
H 0.5691 3.5005 2.1767
H 0.2817 3.5224 0.5938
H -1.4472 0.6420 2.0124
H -1.4832 1.8798 0.6852
H -1.2357 2.2323 2.4280
H -0.5270 0.3921 -1.8921
H 0.9677 -0.4514 -2.4134
H 3.0252 0.8046 -3.0047
H 3.0255 1.6390 -1.4612
H 3.0618 2.6187 -2.9888
H 0.9517 0.8703 -4.5353
H 1.0932 2.6656 -4.5244
H -0.4646 1.9067 -4.0741
H 1.2110 3.1828 -1.0671
H -0.4809 3.1275 -1.8331
H 0.9505 3.9521 -2.5371
H 5.8790 -2.5610 1.1697
H 6.3668 -3.3776 3.4416
H 7.3313 -1.8522 5.1352
H 7.8747 0.4862 4.5298
H 7.4063 1.3304 2.2895
H 4.4097 -1.5391 -1.9170
H 5.0954 -3.1212 -3.6986
H 7.4983 -3.5466 -4.1348
H 9.2258 -2.3644 -2.8114
H 8.5640 -0.7990 -1.0248
H 4.4401 2.5785 -0.1304
H 5.1343 4.9365 -0.3451
H 7.5411 5.5225 -0.4093
H 8.5070 1.4098 -0.0719
