16
 
P 1.1865 -0.2703 0.1302
Cl -0.5241 -1.0390 0.9857
Cl 0.6858 1.7480 0.3075
Cl 0.8686 -1.0998 -1.7643
Pt 3.5716 -0.1539 0.0609
N 5.5802 -0.1057 0.0616
C 6.2560 1.0729 0.0180
F 5.5742 2.2427 0.0501
C 7.6527 1.0723 -0.0916
C 8.3342 -0.1447 -0.1705
C 7.6236 -1.3413 -0.0928
C 6.2339 -1.3006 0.0416
H 8.2039 2.0011 -0.1419
H 9.4098 -0.1628 -0.2958
H 8.1445 -2.2883 -0.1557
H 5.6704 -2.2237 0.0999
