87
 
P 0.9524 0.0822 -0.0313
C 0.2368 1.3576 1.0473
C -1.1135 1.7170 1.1515
C -1.5046 2.7558 2.0239
C -2.9283 3.2159 2.0712
C -0.5534 3.3886 2.8404
C 0.7824 3.0053 2.7766
C 1.1749 2.0125 1.8769
C 0.4926 0.6303 -1.6887
C 1.4815 0.8308 -2.6487
C 1.1457 1.1946 -3.9625
C 2.2146 1.4851 -4.9686
C -0.2026 1.3035 -4.3302
C -1.2033 1.0356 -3.3974
C -0.8605 0.6994 -2.0846
C 0.4794 -1.5467 0.5560
C 1.4773 -2.4496 0.9124
C 1.1122 -3.7845 1.2290
C 2.1249 -4.8086 1.5569
C -0.2250 -4.1903 1.1962
C -1.2155 -3.2801 0.8562
C -0.8694 -1.9639 0.5286
Pt 3.4124 0.0822 -0.0313
P 5.8724 0.0822 -0.0313
C 6.6356 0.7915 1.4622
C 6.1782 0.2933 2.7004
C 6.5886 0.8743 3.9121
C 6.0221 0.4094 5.2254
C 7.5033 1.9333 3.8883
C 7.9735 2.4252 2.6706
C 7.5287 1.8768 1.4668
C 6.4166 -1.6205 0.1751
C 5.4972 -2.6661 0.1393
C 5.9356 -3.9927 0.3278
C 4.9795 -5.1276 0.3328
C 7.2877 -4.2637 0.5370
C 8.2164 -3.2287 0.5064
C 7.7874 -1.9106 0.3197
C 6.2906 1.2565 -1.3373
C 7.6328 1.4940 -1.7016
C 7.9490 2.4467 -2.6826
C 9.3810 2.8084 -2.9647
C 6.9118 3.0943 -3.3676
C 5.5765 2.7974 -3.0644
C 5.2681 1.8944 -2.0360
H -1.8599 1.2261 0.5596
H -3.5613 2.6302 1.3734
H -2.9649 4.2812 1.7554
H -3.3384 3.1258 3.0980
H -0.8447 4.1791 3.5248
H 1.5161 3.4858 3.4167
H 2.2260 1.7441 1.8432
H 2.5068 0.6848 -2.3717
H 3.2271 1.3110 -4.5475
H 2.1323 2.5559 -5.2462
H 2.0917 0.8602 -5.8783
H -0.4764 1.5759 -5.3425
H -2.2451 1.0858 -3.6945
H -1.6638 0.4687 -1.4061
H 2.5211 -2.0852 0.8848
H 3.0726 -4.2762 1.7132
H 2.1431 -5.5485 0.7185
H 1.9109 -5.3523 2.4945
H -0.4931 -5.2177 1.4291
H -2.2466 -3.6118 0.8245
H -1.6581 -1.2955 0.2189
H 5.4590 -0.5180 2.7222
H 5.2931 -0.4178 5.0901
H 5.4819 1.2553 5.7058
H 6.8299 0.0695 5.9050
H 7.8335 2.3940 4.8111
H 8.6634 3.2584 2.6552
H 7.8802 2.3385 0.5683
H 4.4539 -2.4336 -0.0261
H 4.0316 -4.7740 -0.1042
H 4.8926 -5.4919 1.3839
H 5.2911 -5.9703 -0.3088
H 7.6160 -5.2834 0.7005
H 9.2664 -3.4551 0.6353
H 8.5264 -1.1204 0.3011
H 8.4361 0.9735 -1.1920
H 10.0865 2.1918 -2.3671
H 9.5318 3.8692 -2.6676
H 9.6287 2.6952 -4.0404
H 7.1389 3.8294 -4.1321
H 4.7830 3.2885 -3.6111
H 4.2414 1.6832 -1.7590
