56
 
P 0.9304 0.0487 -0.0528
C 0.1178 -0.4117 1.4968
C -1.2618 -0.3500 1.6991
C -1.8055 -0.7117 2.9390
C -0.9790 -1.1486 3.9817
Cl -1.6740 -1.5798 5.5352
C 0.4001 -1.2348 3.7842
C 0.9470 -0.8647 2.5499
C 0.3431 1.7514 -0.0657
C 0.7227 2.7074 0.8750
C 0.1543 3.9899 0.8308
C -0.7914 4.3193 -0.1507
Cl -1.5443 5.9049 -0.1585
C -1.1463 3.3776 -1.1172
C -0.5772 2.1027 -1.0792
C 0.5469 -1.2417 -1.2328
C -0.7909 -1.5488 -1.5599
C -1.0834 -2.5400 -2.4979
C -0.0432 -3.2249 -3.1272
Cl -0.4328 -4.4907 -4.2859
C 1.2963 -2.8995 -2.8289
C 1.6040 -1.8988 -1.8727
Pt 3.3904 0.0487 -0.0528
P 5.8504 0.0487 -0.0528
N 6.7364 -0.8751 1.1768
C 8.1820 -0.8303 1.0748
C 8.5851 0.0530 -0.0893
C 10.1139 0.0977 -0.1536
C 7.9832 -0.6038 -1.4066
N 6.5156 -0.8610 -1.3814
N 6.5348 1.5664 0.4556
C 8.0004 1.5038 0.1932
H -1.9109 -0.0101 0.9102
H -2.8725 -0.6476 3.0912
H 1.0445 -1.5832 4.5866
H 2.0228 -0.9400 2.4218
H 1.4415 2.4556 1.6395
H 0.4362 4.7248 1.5697
H -1.8728 3.6265 -1.8855
H -0.8819 1.3840 -1.8331
H -1.6172 -1.0237 -1.1021
H -2.1186 -2.7742 -2.7353
H 2.0833 -3.4322 -3.3443
H 2.6474 -1.5963 -1.5965
H 6.4023 -1.8664 1.1286
H 8.5814 -1.8636 0.9507
H 8.5762 -0.4338 2.0354
H 10.5191 -0.9303 -0.2835
H 10.5165 0.5024 0.8017
H 10.4541 0.7353 -0.9916
H 8.4882 -1.5773 -1.5989
H 8.2182 0.0522 -2.2711
H 6.2721 -1.8727 -1.2912
H 6.2874 1.7865 1.4460
H 8.5157 1.9418 1.0769
H 8.2402 2.1558 -0.6734
