55
 
P 0.9915 0.0013 -0.0996
C 0.2893 1.3005 -1.2263
C 1.1405 2.2555 -1.9203
C 2.6487 2.3571 -1.8348
C 0.5681 3.2687 -2.7111
C -0.8051 3.4144 -2.7902
C -1.6344 2.5310 -2.1037
C -1.0985 1.4739 -1.3476
C 0.6622 -1.6426 -0.8104
C 1.1865 -2.1244 -2.0203
C 2.1509 -1.3124 -2.8286
C 0.8545 -3.4337 -2.4475
C 0.0740 -4.2790 -1.6490
C -0.3865 -3.8318 -0.4175
C -0.1082 -2.5256 -0.0101
C 0.4463 0.4301 1.6295
C 0.7434 -0.3908 2.7768
C 1.5455 -1.6652 2.7652
C 0.2327 -0.0457 4.0449
C -0.5726 1.0693 4.2167
C -0.8691 1.8757 3.1270
C -0.3645 1.5692 1.8554
Pt 3.4515 0.0013 -0.0996
N 5.5515 0.0013 -0.0996
C 6.2272 0.2682 1.0453
Cl 5.3192 0.5328 2.5188
C 7.6252 0.3530 1.0251
C 8.3027 0.1619 -0.1841
C 7.5826 -0.1184 -1.3474
C 6.1908 -0.1980 -1.2819
H 3.0781 1.8020 -1.0013
H 2.9332 3.4176 -1.6326
H 3.1325 2.0834 -2.7984
H 1.1939 3.9905 -3.2347
H -1.2190 4.2346 -3.3677
H -2.7024 2.6833 -2.1498
H -1.7695 0.8229 -0.8114
H 2.5430 -0.4118 -2.2706
H 1.6875 -1.0925 -3.8170
H 3.0589 -1.9256 -2.9846
H 1.2310 -3.8230 -3.3836
H -0.1532 -5.2913 -1.9682
H -0.9574 -4.4990 0.2231
H -0.4844 -2.2221 0.9585
H 1.8705 -1.9852 1.7626
H 0.9258 -2.4802 3.2101
H 2.4431 -1.5427 3.4080
H 0.4399 -0.6645 4.9130
H -0.9722 1.2998 5.1987
H -1.5052 2.7398 3.2726
H -0.6402 2.2352 1.0585
H 8.1801 0.5778 1.9266
H 9.3818 0.2379 -0.2233
H 8.0940 -0.2580 -2.2914
H 5.6114 -0.3904 -2.1758
