72
 
P 0.9778 -0.0804 0.0552
C 0.4076 -1.6967 -0.6582
C 1.2347 -2.8726 -0.5277
C 2.4754 -2.9617 0.3255
C 0.9172 -4.0517 -1.2309
C -0.1985 -4.1096 -2.0511
C -1.0330 -2.9983 -2.1573
C -0.7372 -1.8014 -1.4724
C 0.3639 -0.1522 1.8363
C 1.1392 0.0413 3.0367
C 2.6094 0.2768 3.0906
C 0.5144 0.0409 4.3066
C -0.8475 -0.1716 4.4404
C -1.6210 -0.3558 3.3037
C -1.0322 -0.3295 2.0254
C 0.5801 1.3360 -1.0869
C 1.4648 1.9566 -2.0311
C 2.9071 1.6169 -2.2061
C 1.0031 3.0093 -2.8522
C -0.2756 3.5279 -2.7048
C -1.1191 3.0010 -1.7362
C -0.7059 1.9129 -0.9516
Pt 3.4378 -0.0804 0.0552
P 5.8978 -0.0804 0.0552
O 7.0893 -1.0171 0.8669
C 6.6282 -1.0830 2.2320
C 7.3598 -2.0838 3.1117
O 6.4741 -0.1703 -1.5449
C 6.0594 -1.3417 -2.1770
C 6.6508 -1.3080 -3.5856
C 6.3189 1.4477 0.9329
C 5.3370 2.2748 1.4795
C 5.7111 3.4323 2.1775
C 7.0639 3.7609 2.3354
C 8.0501 2.9314 1.8017
C 7.6817 1.7832 1.0997
H 2.6705 -2.0517 0.9117
H 3.3651 -3.1905 -0.3020
H 2.3498 -3.7968 1.0517
H 1.5493 -4.9348 -1.1549
H -0.4109 -5.0214 -2.6038
H -1.9008 -3.0688 -2.7992
H -1.3930 -0.9571 -1.6059
H 3.0790 0.1340 2.1191
H 3.0628 -0.4436 3.8072
H 2.8041 1.3052 3.4713
H 1.0917 0.1998 5.2145
H -1.2984 -0.1872 5.4300
H -2.6867 -0.5116 3.4238
H -1.6899 -0.4526 1.1781
H 3.3203 1.1518 -1.3247
H 3.4875 2.5645 -2.2262
H 3.0798 1.0926 -3.1694
H 1.6544 3.4636 -3.5931
H -0.5983 4.3592 -3.3248
H -2.0988 3.4431 -1.5977
H -1.3990 1.5432 -0.2108
H 5.5332 -1.3075 2.3302
H 6.8399 -0.1212 2.7355
H 7.0603 -3.1284 2.8940
H 7.0837 -1.8693 4.1737
H 8.4536 -1.9493 3.0119
H 4.9493 -1.3740 -2.2553
H 6.4623 -2.2360 -1.6536
H 6.2728 -0.4198 -4.1392
H 6.3827 -2.2242 -4.1484
H 7.7602 -1.2314 -3.5325
H 4.2928 2.0212 1.3646
H 4.9534 4.0760 2.6004
H 7.3507 4.6555 2.8736
H 9.0987 3.1749 1.9342
H 8.4642 1.1439 0.7054
