64
 
P 0.9337 0.0605 -0.0440
C 0.1739 -0.0987 -1.8507
C -1.3640 -0.0789 -1.9538
C 0.6300 1.0042 -2.8612
C 0.6970 -1.3972 -2.5147
C 0.4512 -1.6424 0.9241
C 1.1373 -2.8806 0.3164
C 0.8251 -1.8184 2.4434
C -1.0833 -1.8759 0.9923
C 0.4661 1.7444 0.6460
C 0.9838 2.1662 2.0966
C 2.5122 2.1319 2.0978
C 0.5125 3.5932 2.4442
C 0.4979 1.3094 3.2697
Pt 3.3937 0.0605 -0.0440
N 5.4937 0.0605 -0.0440
C 6.1130 -1.1377 -0.1152
C 5.2544 -2.3460 -0.2108
C 7.5139 -1.2096 -0.1107
C 8.2624 -0.0239 -0.0511
C 9.7626 -0.0529 -0.0562
C 7.5941 1.2043 0.0050
C 6.1935 1.2286 0.0081
C 5.4609 2.5242 0.0699
H -1.7742 0.9051 -1.6670
H -1.8808 -0.8409 -1.3981
H -1.6731 -0.3130 -3.0004
H 0.3485 2.0270 -2.5534
H 0.1036 0.8400 -3.8425
H 1.7050 0.9542 -3.1380
H 0.1248 -2.2597 -2.1822
H 1.8005 -1.5055 -2.3711
H 0.5103 -1.4439 -3.6096
H 2.2216 -2.7022 0.2568
H 0.7497 -3.2309 -0.6240
H 0.9683 -3.7937 0.9297
H 1.9087 -1.7554 2.6688
H 0.5281 -2.8354 2.8065
H 0.1588 -1.2913 3.1517
H -1.5419 -2.1026 0.0413
H -1.5960 -1.0330 1.5155
H -1.3371 -2.8041 1.5524
H -0.6433 1.8057 0.6490
H 0.8461 2.4998 -0.0708
H 2.8535 2.8061 1.3014
H 2.8921 1.1084 1.8899
H 2.9195 2.4540 3.0848
H 0.8329 4.3151 1.6714
H 0.9522 3.9173 3.4195
H -0.5932 3.6337 2.5610
H 1.0856 0.4154 3.2389
H -0.6076 1.1657 3.2871
H 0.7990 1.7187 4.2613
H 4.1801 -2.0038 -0.2799
H 5.4350 -2.9924 0.6758
H 5.5211 -2.9119 -1.1279
H 8.0118 -2.1696 -0.1638
H 10.1485 -1.0926 -0.1078
H 10.1515 0.4216 0.8696
H 10.1437 0.5065 -0.9370
H 8.1579 2.1297 0.0487
H 6.1491 3.3950 0.0976
H 4.8896 2.5317 1.0043
H 4.7852 2.6244 -0.8061
