65
 
P 0.9597 0.0887 0.0226
C 0.2104 0.2363 -1.7981
C -1.3245 0.2634 -1.8952
C 0.6440 1.4872 -2.6396
C 0.7408 -0.9366 -2.6571
C 0.4696 -1.7457 0.7058
C 1.1569 -2.8571 -0.1044
C 0.8318 -2.1961 2.1749
C -1.0667 -1.9765 0.7374
C 0.4954 1.6296 0.9936
C 1.0327 1.7885 2.4865
C 2.5753 1.7524 2.4493
C 0.5576 3.1243 3.0918
C 0.5470 0.7433 3.4972
Pt 3.4197 0.0887 0.0226
P 5.8797 0.0887 0.0226
N 6.7603 -1.4010 -0.3346
C 8.1975 -1.2928 -0.3330
C 8.6049 0.1261 0.0231
C 10.1302 0.1797 0.0373
C 8.0149 1.0873 -1.0961
N 6.5409 1.0149 -1.2944
N 6.5453 0.3073 1.6136
C 8.0188 0.4583 1.4638
H -1.7394 1.1889 -1.4594
H -1.8299 -0.5734 -1.4634
H -1.6375 0.1772 -2.9627
H 0.3736 2.4512 -2.1735
H 0.0853 1.4771 -3.6186
H 1.7039 1.4855 -2.9752
H 0.1669 -1.8340 -2.4603
H 1.8467 -1.0602 -2.5325
H 0.5438 -0.8264 -3.7448
H 2.2478 -2.6625 -0.1478
H 0.7557 -3.0432 -1.0813
H 0.9787 -3.8603 0.3406
H 1.9164 -2.2334 2.4045
H 0.4842 -3.2441 2.3595
H 0.1891 -1.7851 2.9753
H -1.5375 -2.0208 -0.2276
H -1.5733 -1.2475 1.4160
H -1.3245 -2.9958 1.0998
H -0.6150 1.6948 1.0129
H 0.8760 2.4981 0.4224
H 2.9439 2.5677 1.8083
H 2.9580 0.7967 2.0439
H 2.9800 1.8716 3.4810
H 0.8664 3.9646 2.4489
H 1.0045 3.2733 4.1059
H -0.5492 3.1417 3.2278
H 1.1296 -0.1216 3.2806
H -0.5632 0.6088 3.5142
H 0.8659 0.9517 4.5451
H 6.4115 -1.7649 -1.2531
H 8.5887 -1.5905 -1.3334
H 8.5828 -2.0266 0.4077
H 10.5244 -0.1148 -0.9607
H 10.5208 -0.5441 0.7871
H 10.4793 1.1980 0.2888
H 8.4971 0.8557 -2.0726
H 8.2849 2.1329 -0.8428
H 6.2738 0.5733 -2.2032
H 6.2793 -0.5040 2.2163
H 8.5026 -0.1996 2.2202
H 8.2913 1.5022 1.7225
