55
 
P 1.0109 -0.0992 0.0060
C 0.5206 1.5688 -0.5227
C -0.8164 1.8150 -0.8991
C -1.1937 3.0515 -1.4352
C -0.2497 4.0680 -1.5736
C 1.0704 3.8508 -1.1643
C 1.4575 2.6018 -0.6473
C 0.6942 -1.5503 -1.0728
C 1.5240 -2.6895 -1.0731
C 1.2433 -3.7772 -1.9238
C 0.1429 -3.7397 -2.7846
C -0.6655 -2.6070 -2.8194
C -0.3883 -1.5208 -1.9803
C 0.1184 -0.3454 1.6067
C 0.5379 -1.6987 2.2438
C 2.0605 -1.7519 2.5711
C 2.4110 -0.6469 3.5791
C 2.0335 0.7203 3.0004
C 0.5246 0.7623 2.6330
Pt 3.4709 -0.0992 0.0060
N 5.5709 -0.0992 0.0060
C 6.2365 0.8716 -0.6574
C 5.4284 1.9331 -1.3122
C 7.6395 0.8292 -0.7328
C 8.3217 -0.2360 -0.1321
C 7.6054 -1.2301 0.5375
C 6.2141 -1.1403 0.5977
H -1.5710 1.0470 -0.8146
H -2.2158 3.2181 -1.7573
H -0.5440 5.0211 -1.9998
H 1.7934 4.6494 -1.2678
H 2.4806 2.4334 -0.3543
H 2.3877 -2.7440 -0.4268
H 1.8750 -4.6568 -1.9222
H -0.0811 -4.5819 -3.4320
H -1.5102 -2.5717 -3.4993
H -1.0349 -0.6654 -2.0543
H -0.9772 -0.3233 1.4368
H 0.2643 -2.5411 1.5795
H -0.0346 -1.8365 3.1937
H 2.7130 -1.6301 1.6349
H 2.2855 -2.7336 3.0499
H 3.4985 -0.6820 3.8150
H 1.8602 -0.8040 4.5362
H 2.6594 0.9154 2.1051
H 2.2714 1.5081 3.7494
H 0.2640 1.7687 2.2481
H -0.0508 0.6140 3.5757
H 4.3303 1.6919 -1.1226
H 5.6562 1.9331 -2.4015
H 5.7213 2.9243 -0.8992
H 8.1963 1.5912 -1.2630
H 9.4011 -0.3006 -0.1944
H 8.1194 -2.0676 0.9928
H 5.6381 -1.9106 1.0941
