67
 
P 0.9313 -0.0334 0.0645
C 0.4210 -0.2310 -1.8430
C 0.9688 0.8646 -2.7899
C 2.5000 0.8509 -2.8420
C 3.0543 -0.5403 -3.2272
C 2.4239 -1.6610 -2.3814
C 0.8926 -1.5237 -2.5493
C 0.1299 -1.4342 1.0948
C -1.4219 -1.3621 1.0576
C -1.9883 -1.9663 -0.2287
C -1.5290 -3.4128 -0.4221
C -0.0066 -3.6670 -0.1459
C 0.5187 -2.9392 1.0753
C 0.4320 1.7042 0.5707
C -0.7120 2.4242 0.0468
C -1.7911 1.9035 -0.8585
C -0.9722 3.7410 0.4420
C -0.2145 4.3758 1.4037
C -0.5700 5.7813 1.8016
C 0.8253 3.6757 2.0148
C 1.1532 2.3561 1.6192
C 2.2489 1.6527 2.3707
Pt 3.3913 -0.0334 0.0645
N 5.4913 -0.0334 0.0645
C 6.1362 1.1199 0.3837
C 7.5280 1.1976 0.2720
Cl 8.3616 2.7082 0.5886
C 8.2439 0.0665 -0.1294
C 7.5629 -1.1176 -0.4217
C 6.1679 -1.1429 -0.3343
H -0.6292 -0.1278 -2.0747
H 0.5636 1.8603 -2.5348
H 0.5888 0.6608 -3.8288
H 2.8663 1.1413 -1.8439
H 2.8452 1.5993 -3.5878
H 4.1605 -0.5494 -3.1392
H 2.8032 -0.7505 -4.2933
H 2.7440 -1.5895 -1.3148
H 2.7846 -2.6412 -2.7578
H 0.2076 -2.3303 -2.3420
H 0.6760 -1.5303 -3.6426
H 0.4251 -1.1231 2.1199
H -1.7714 -0.3175 1.1849
H -1.8474 -1.9531 1.9001
H -1.6781 -1.4112 -1.0776
H -3.0979 -1.8838 -0.2550
H -1.8035 -3.7264 -1.4571
H -2.1280 -4.0161 0.2864
H 0.7240 -3.3431 -0.8505
H 0.1756 -4.7584 -0.1359
H 1.6165 -3.0743 1.1856
H 0.0459 -3.4324 1.9568
H -1.8666 0.8228 -0.8360
H -1.7484 2.3806 -1.8597
H -2.7873 2.1671 -0.4284
H -1.8188 4.2747 0.0177
H -1.4224 6.1731 1.2002
H 0.2941 6.4561 1.6349
H -0.8737 5.8011 2.8674
H 1.3759 4.1681 2.8086
H 2.6379 2.2838 3.2039
H 3.0723 1.3776 1.6656
H 1.8140 0.7577 2.8724
H 5.5595 1.9912 0.6658
H 9.3215 0.1076 -0.2260
H 8.1092 -1.9985 -0.7329
H 5.6220 -2.0427 -0.5848
