48
 
P 0.9442 -0.0480 -0.0677
O 0.3684 1.2856 0.8308
C 0.8614 1.3378 2.1289
C 0.4130 2.6808 2.7071
O 0.6201 -0.4251 -1.7044
C -0.7725 -0.2467 -1.9026
C -1.1490 -0.4822 -3.3535
C 0.0623 -1.4288 0.6930
C -1.1531 -1.2962 1.3528
C -1.8000 -2.4319 1.8506
C -1.2318 -3.7038 1.6998
C -0.0066 -3.8477 1.0500
C 0.6385 -2.7157 0.5433
Pt 3.4042 -0.0480 -0.0677
N 5.5042 -0.0480 -0.0677
C 6.3390 -0.0304 0.9798
N 7.6288 -0.0709 0.5681
C 8.8172 -0.0762 1.3910
C 8.7256 -0.0568 2.7985
C 9.8797 -0.0255 3.5852
C 11.1387 -0.0178 2.9838
C 11.2473 -0.0557 1.5943
C 10.0992 -0.0874 0.8024
C 7.5756 -0.0969 -0.7860
C 6.2590 -0.0914 -1.1726
H 1.9724 1.2801 2.1559
H 0.3876 0.5366 2.7269
H 0.8796 3.5257 2.1525
H 0.6916 2.7502 3.7763
H -0.6928 2.7879 2.6184
H -1.0905 0.7856 -1.6297
H -1.3603 -0.9954 -1.3301
H -0.6161 0.2323 -4.0118
H -2.2456 -0.3326 -3.4685
H -0.9043 -1.5248 -3.6475
H -1.6031 -0.3224 1.4522
H -2.7515 -2.3230 2.3445
H -1.7438 -4.5777 2.0811
H 0.4333 -4.8347 0.9315
H 1.5876 -2.8544 0.0301
H 5.9984 -0.0114 2.0047
H 7.7708 -0.0587 3.3026
H 9.7956 -0.0007 4.6636
H 12.0308 0.0170 3.5939
H 12.2223 -0.0541 1.1250
H 10.2303 -0.1114 -0.2684
H 8.4156 -0.1210 -1.4639
H 5.8735 -0.1057 -2.1834
