66
 
P 1.0873 -0.0486 -0.0040
C 0.2267 -1.6325 0.1134
C -1.1588 -1.7380 0.2446
C -1.7401 -2.9867 0.4959
C -0.9441 -4.1337 0.6019
C 0.4346 -4.0462 0.4072
C 1.0201 -2.8015 0.1553
C 0.5654 0.2603 1.7100
C 0.9631 -0.5052 2.8199
C 0.3921 -0.2562 4.0812
C -0.5716 0.7470 4.2401
C -0.9491 1.5263 3.1485
C -0.3794 1.2899 1.8957
C 0.6624 1.0259 -1.4249
C 1.1332 2.3770 -1.5315
C 1.9988 3.0658 -0.5067
C 0.7545 3.1635 -2.6367
C -0.1056 2.6602 -3.6064
C -0.5896 1.3590 -3.4950
C -0.2029 0.5451 -2.4217
Pt 3.5473 -0.0486 -0.0040
P 6.0073 -0.0486 -0.0040
N 6.9579 1.2848 0.7677
C 6.6524 2.6248 0.2036
C 6.5181 1.4115 2.1943
N 6.4426 -1.2854 1.2326
C 6.0034 -2.6366 0.8512
C 7.9051 -1.3469 1.4859
N 6.4730 0.0865 -1.7306
C 7.9335 -0.0507 -1.9025
C 5.8775 -1.0549 -2.4785
H -1.7734 -0.8525 0.1906
H -2.8079 -3.0606 0.6356
H -1.3950 -5.0898 0.8369
H 1.0491 -4.9382 0.4784
H 2.0983 -2.7528 0.0326
H 1.6854 -1.3012 2.7094
H 0.6774 -0.8520 4.9378
H -1.0321 0.9205 5.2062
H -1.6980 2.3015 3.2677
H -0.7105 1.8923 1.0582
H 2.1517 2.4696 0.4100
H 1.5078 4.0195 -0.2027
H 2.9855 3.3211 -0.9487
H 1.1051 4.1870 -2.7353
H -0.4076 3.2883 -4.4375
H -1.2735 0.9836 -4.2442
H -0.6017 -0.4560 -2.3631
H 7.0085 2.7496 -0.8326
H 7.1743 3.4149 0.8037
H 5.5658 2.8818 0.2714
H 6.5454 0.4781 2.7823
H 5.4660 1.7709 2.2889
H 7.1861 2.1085 2.7457
H 4.9147 -2.6709 0.6537
H 6.2041 -3.3411 1.6930
H 6.5717 -3.0224 -0.0247
H 8.3203 -0.4074 1.8951
H 8.4793 -1.5895 0.5720
H 8.1286 -2.1060 2.2674
H 8.4852 0.7155 -1.3303
H 8.1988 0.0805 -2.9774
H 8.3020 -1.0655 -1.6191
H 4.7699 -1.0324 -2.4676
H 6.2141 -2.0473 -2.0891
H 6.1927 -1.0412 -3.5495
