67
 
P 1.0026 -0.0996 -0.0085
C 0.1430 0.8259 -1.4133
C 0.6422 0.4967 -2.8543
C 0.1103 -0.8387 -3.3414
C -1.4461 -0.9163 -3.1859
C -2.0747 -0.3913 -1.8543
C -1.3947 0.9083 -1.4171
C 0.5099 -1.9358 -0.3274
C 0.2681 -3.2983 -1.1603
C 1.4401 -4.2720 -1.2612
C 2.0348 -4.5429 0.1165
C 2.2773 -3.2261 0.8481
C 0.9157 -2.5264 1.0306
C 0.4956 0.7783 1.6986
C -0.6670 0.4664 2.5766
C -1.7399 -0.6002 2.4606
C -0.8949 1.1717 3.7917
C -0.0900 2.1794 4.2418
C -0.4609 2.9047 5.5261
C 1.0449 2.4713 3.5007
C 1.3560 1.7849 2.2803
C 2.6685 2.1400 1.6692
Pt 3.4626 -0.0996 -0.0085
N 5.5626 -0.0996 -0.0085
C 6.2461 -0.4697 -1.1238
F 5.5694 -0.7543 -2.2628
C 7.6430 -0.5437 -1.0951
C 8.3174 -0.2634 0.0964
C 7.5947 0.1104 1.2306
C 6.2035 0.2035 1.1519
H 0.4996 1.8698 -1.2519
H 1.7556 0.5289 -2.9316
H 0.2613 1.2698 -3.5598
H 0.7108 -1.5760 -2.8194
H 0.3826 -1.0144 -4.4081
H -1.8088 -1.9438 -3.4048
H -1.8440 -0.2463 -3.9702
H -2.1522 -1.0862 -1.0170
H -3.1614 -0.2389 -1.9865
H -1.7630 1.2657 -0.4352
H -1.6755 1.6699 -2.1809
H -0.4700 -1.6512 -0.3899
H -0.2234 -3.2314 -2.1468
H -0.5295 -3.8585 -0.6022
H 2.1951 -3.8282 -1.9311
H 1.0949 -5.2477 -1.6879
H 2.9695 -5.1279 0.0028
H 1.3294 -5.1444 0.7383
H 2.9801 -2.5823 0.2648
H 2.7327 -3.4607 1.8252
H 0.9510 -1.7886 1.8505
H 0.1385 -3.2293 1.4053
H -2.1239 -0.8430 1.4646
H -2.6907 -0.2162 2.9180
H -1.5069 -1.4234 3.1822
H -1.7440 0.9398 4.4345
H -1.3627 2.4647 6.0184
H -0.7157 3.9640 5.3080
H 0.3627 2.8571 6.2659
H 1.6985 3.2403 3.9030
H 2.8671 3.2287 1.8307
H 2.6675 1.9490 0.5965
H 3.4557 1.4669 2.0824
H 8.1973 -0.8293 -1.9796
H 9.3960 -0.3417 0.1434
H 8.1044 0.3115 2.1643
H 5.6285 0.4625 2.0301
