60
 
P 1.0632 0.0660 -0.0406
C 0.5139 0.2538 1.7483
C -0.8655 0.3936 2.0922
C -1.2809 0.6630 3.4138
C -0.3435 0.7884 4.4326
C 1.0126 0.6331 4.1357
C 1.4435 0.3707 2.8092
C 0.6343 1.4041 -1.1912
C 1.4660 1.8119 -2.2479
C 1.0772 2.8860 -3.0722
C -0.1285 3.5592 -2.8410
C -0.9477 3.1682 -1.7857
C -0.5675 2.1033 -0.9695
C 0.2282 -1.4297 -0.7995
C 0.6398 -1.7061 -2.2969
C 2.1180 -2.1440 -2.4897
C 2.4113 -3.4061 -1.6705
C 2.1036 -3.1203 -0.2000
C 0.6148 -2.7136 -0.0123
Pt 3.5232 0.0660 -0.0406
N 5.6232 0.0660 -0.0406
C 6.4575 0.5263 0.9008
N 7.7475 0.3347 0.5357
C 8.9357 0.7293 1.2581
C 8.8438 1.3958 2.4980
C 9.9963 1.8260 3.1602
C 11.2540 1.5949 2.6019
C 11.3633 0.9203 1.3866
C 10.2169 0.4884 0.7194
C 7.6943 -0.2781 -0.6722
C 6.3777 -0.4405 -1.0235
H -1.6476 0.3255 1.3526
H -2.3334 0.7929 3.6581
H -0.6715 1.0116 5.4491
H 1.7241 0.7392 4.9472
H 2.5053 0.2886 2.6102
H 2.4054 1.3092 -2.4357
H 1.7074 3.2072 -3.8909
H -0.4299 4.3878 -3.4717
H -1.8775 3.6920 -1.5935
H -1.2205 1.8425 -0.1567
H -0.8670 -1.2691 -0.7530
H 0.4302 -0.8345 -2.9473
H 0.0170 -2.5498 -2.6792
H 2.8131 -1.3215 -2.1779
H 2.3130 -2.3840 -3.5631
H 3.4786 -3.7059 -1.7916
H 1.7930 -4.2639 -2.0278
H 2.7809 -2.3115 0.1453
H 2.3284 -4.0351 0.3893
H 0.3941 -2.5727 1.0632
H -0.0075 -3.5631 -0.3758
H 6.1165 0.9895 1.8151
H 7.8896 1.6024 2.9593
H 9.9118 2.3483 4.1041
H 12.1444 1.9396 3.1094
H 12.3371 0.7379 0.9517
H 10.3482 -0.0205 -0.2230
H 8.5345 -0.5866 -1.2760
H 5.9918 -0.8922 -1.9277
