105
 
P 1.0476 -0.0673 0.0566
C -0.0260 -1.4670 0.7178
C 0.0663 -2.9496 0.1219
C 1.4544 -3.6246 0.1873
C 1.9960 -3.5951 1.6056
C 1.8902 -2.1786 2.1391
C 0.4553 -1.6106 2.1551
C 0.7393 1.5445 1.0360
C 1.4396 2.7761 0.4362
C 0.7311 3.3778 -0.7641
C -0.6210 3.9142 -0.3192
C -1.4605 2.7702 0.2567
C -0.7190 1.9898 1.3785
C 0.5398 0.0544 -1.7597
C 1.4601 -0.0187 -2.8473
C 2.8874 -0.3395 -2.6868
C 1.0565 0.2104 -4.1742
C -0.2588 0.5032 -4.4793
C -1.2006 0.5333 -3.4583
C -0.8149 0.2898 -2.1221
Pt 3.5076 -0.0673 0.0566
P 5.9676 -0.0673 0.0566
C 6.7262 1.6930 -0.3045
C 6.5632 2.8278 -1.4505
C 5.1527 3.4445 -1.6295
C 4.7284 4.1209 -0.3483
C 4.7868 3.0819 0.7364
C 6.1903 2.5555 0.8860
C 6.7796 -0.6444 1.7771
C 6.4656 0.1655 3.0770
C 4.9670 0.0479 3.4082
C 4.6829 -1.3931 3.7962
C 5.0649 -2.2912 2.6307
C 6.5530 -2.0955 2.2835
C 6.3871 -1.2556 -1.3683
C 7.1318 -0.8724 -2.5644
C 7.6541 0.4672 -2.9804
C 7.4423 -1.8109 -3.5427
C 7.1386 -3.1337 -3.3925
C 7.5670 -4.1142 -4.4168
C 6.4328 -3.5503 -2.2940
C 6.0089 -2.6538 -1.3109
C 5.1261 -3.3164 -0.2991
H -1.0850 -1.1551 0.6554
H -0.3017 -3.0333 -0.9160
H -0.5880 -3.5998 0.7558
H 2.1208 -3.0825 -0.5017
H 1.4362 -4.6948 -0.1340
H 3.0529 -3.9403 1.6000
H 1.4444 -4.2821 2.2841
H 2.5757 -1.5456 1.4943
H 2.1530 -2.2534 3.1811
H 0.4523 -0.6257 2.6600
H -0.2132 -2.2591 2.7576
H 1.2235 1.3356 2.0134
H 2.3840 2.4790 0.0563
H 1.5422 3.5754 1.2142
H 0.6273 2.6130 -1.5528
H 1.3436 4.2048 -1.1830
H -1.1360 4.3645 -1.1954
H -0.4672 4.7089 0.4439
H -1.7064 2.1376 -0.5837
H -2.4255 3.1686 0.6368
H -1.3158 1.1398 1.7677
H -0.6372 2.7218 2.2163
H 3.0501 -0.7467 -1.7072
H 3.4777 0.5692 -2.9221
H 3.1645 -1.1761 -3.3581
H 1.7783 0.1588 -4.9833
H -0.5364 0.6886 -5.5130
H -2.2306 0.7546 -3.7164
H -1.5929 0.3019 -1.3830
H 6.1651 1.1511 -1.0498
H 6.8240 2.6159 -2.4815
H 7.2620 3.6547 -1.2152
H 4.4107 2.6617 -1.9130
H 5.1689 4.2147 -2.4311
H 3.7068 4.5445 -0.4434
H 5.4244 4.9523 -0.0896
H 4.2162 2.1658 0.4912
H 4.4238 3.5374 1.6880
H 5.9620 1.9815 1.7081
H 6.9034 3.3592 1.1759
H 7.8738 -0.5668 1.6161
H 6.8926 1.1698 3.1164
H 7.0404 -0.2204 3.9415
H 4.3345 0.3192 2.5259
H 4.6702 0.6855 4.2592
H 3.6424 -1.4272 4.0988
H 5.2321 -1.7397 4.6929
H 4.4995 -1.9626 1.7523
H 4.8344 -3.3522 2.8716
H 7.0396 -2.8186 1.6122
H 7.1143 -2.3108 3.2208
H 8.1812 1.0055 -2.1823
H 6.8873 0.9442 -3.6428
H 8.5424 0.3951 -3.6412
H 7.9652 -1.5087 -4.4435
H 8.0509 -3.6037 -5.2754
H 6.6760 -4.6671 -4.7692
H 8.3001 -4.8015 -3.9467
H 6.1974 -4.6050 -2.2211
H 4.9847 -4.4016 -0.4679
H 4.1846 -2.7509 -0.2345
H 5.5222 -3.5080 0.6466
