96
 
P 0.9276 -0.0442 0.0530
C -0.0566 1.6590 -0.1019
C 0.3827 2.2333 1.2600
C 1.6595 3.1232 1.0875
C 1.1485 4.4951 0.7052
C 0.5281 4.3562 -0.6846
C -0.4202 3.0929 -0.8297
C 0.4282 -0.8836 -1.5840
C 0.8662 -0.1884 -2.8617
C 2.3532 -0.3884 -3.0700
C 2.5406 -1.8971 -3.3144
C 2.1688 -2.6988 -2.0503
C 0.7416 -2.4257 -1.6606
C 0.2646 -0.9079 1.7889
C -1.1517 -1.2384 1.9229
C -2.1801 -0.9967 0.9063
C -1.7405 -1.8827 3.0416
C -1.0172 -2.2646 4.1316
C -1.6455 -3.0308 5.2739
C 0.3157 -1.9611 4.1401
C 0.9844 -1.3174 3.0397
C 2.4431 -1.1926 3.3726
Pt 3.3876 -0.0442 0.0530
C 5.5376 -0.0442 0.0530
N 6.3368 -1.1388 -0.0546
C 5.8726 -2.4876 -0.3042
C 5.1866 -2.4961 -1.6590
C 6.0446 -2.1772 -2.8890
C 7.0987 -3.2144 -3.0997
C 7.6068 -0.6872 0.0077
C 7.5755 0.6628 0.2210
C 8.7585 1.4061 0.3513
C 9.9862 0.7287 0.2151
C 10.0147 -0.6584 -0.0333
C 8.8161 -1.3876 -0.1319
N 6.2830 1.0800 0.2611
C 5.8107 2.4402 0.5758
C 6.0485 2.7801 2.0427
C 6.6918 3.9942 2.3085
C 7.2630 4.2339 3.5495
C 7.1259 3.3042 4.5774
C 6.3484 2.1571 4.3848
C 5.8158 1.8777 3.1118
H -1.0465 1.2213 -0.2358
H 0.5542 1.4873 2.0366
H -0.4494 2.8046 1.7131
H 2.3698 2.7453 0.3028
H 2.2337 3.2308 2.0255
H 1.9491 5.2713 0.7106
H 0.4171 4.8155 1.4870
H 1.3629 4.2841 -1.4028
H -0.0057 5.3226 -0.8950
H -0.7897 3.0540 -1.8758
H -1.3294 3.4429 -0.2676
H -0.6602 -0.8710 -1.6415
H 0.5784 0.8742 -2.8412
H 0.3271 -0.6682 -3.7208
H 2.9470 0.0262 -2.1728
H 2.6597 0.1459 -3.9952
H 3.5500 -2.0575 -3.6067
H 1.9770 -2.2695 -4.2033
H 2.7099 -2.3859 -1.1536
H 2.3792 -3.7838 -2.2201
H 0.5207 -2.9528 -0.7035
H 0.1291 -2.9072 -2.4544
H -1.7406 -0.7035 -0.0055
H -2.8538 -0.2052 1.2919
H -2.7415 -1.9369 0.7099
H -2.8001 -2.1304 3.0519
H -2.7279 -3.2278 5.1071
H -1.5270 -2.4791 6.2295
H -1.1398 -4.0192 5.3618
H 0.8273 -2.2770 5.0505
H 2.7052 -1.6135 4.3885
H 2.7446 -0.1352 3.4534
H 2.9936 -1.8313 2.6684
H 5.1486 -2.7607 0.4949
H 6.6879 -3.2349 -0.2905
H 4.4877 -1.6525 -1.6155
H 4.6962 -3.4860 -1.7825
H 6.4429 -1.1453 -2.8110
H 5.4827 -2.2123 -3.8366
H 7.7981 -3.1947 -2.2520
H 7.6243 -2.9695 -4.0423
H 6.6047 -4.2084 -3.1869
H 8.7519 2.4714 0.5306
H 10.9185 1.2754 0.2924
H 10.9679 -1.1630 -0.1471
H 8.8565 -2.4508 -0.3221
H 4.8198 2.7014 0.1602
H 6.4906 3.1075 0.0057
H 6.8117 4.7294 1.5240
H 7.8527 5.1277 3.6864
H 7.6299 3.4791 5.5183
H 6.2206 1.4639 5.2100
H 5.2958 0.9376 2.9642
