48
 
P 1.0540 -0.0357 -0.0762
O 0.4466 0.7133 -1.4917
C 0.9499 1.9915 -1.7326
C 0.4575 2.3946 -3.1259
O 0.6913 -1.5831 0.5484
C -0.6980 -1.7881 0.3481
C -1.0796 -3.2277 0.6502
C 0.2319 0.9541 1.1993
C -0.9282 1.7219 1.0278
C -1.4263 2.4752 2.1045
C -0.7680 2.4729 3.3416
C 0.3892 1.7165 3.5120
C 0.8820 0.9616 2.4493
Pt 3.5140 -0.0357 -0.0762
N 5.6140 -0.0357 -0.0762
C 6.2556 -1.1025 0.4474
C 7.6391 -1.0830 0.6005
C 8.3940 0.0569 0.2130
N 9.8251 0.1509 0.4625
C 10.5889 -0.8869 1.1506
C 10.6189 1.3300 0.1276
C 7.6663 1.1206 -0.3882
C 6.2811 1.0520 -0.5169
H 2.0622 2.0164 -1.7121
H 0.5096 2.7057 -1.0115
H 0.8861 1.7274 -3.9066
H 0.7393 3.4421 -3.3515
H -0.6524 2.3084 -3.1810
H -1.0144 -1.5805 -0.7036
H -1.2787 -1.1542 1.0516
H -0.5812 -3.9201 -0.0593
H -2.1815 -3.3450 0.5472
H -0.7920 -3.4836 1.6905
H -1.4436 1.7396 0.0791
H -2.3216 3.0679 1.9834
H -1.1486 3.0582 4.1694
H 0.9092 1.7170 4.4640
H 1.7924 0.3907 2.6003
H 5.6796 -1.9565 0.7814
H 8.0546 -1.9624 1.0548
H 10.0252 -1.7794 1.4473
H 11.0168 -0.4684 2.0872
H 11.4197 -1.2343 0.5022
H 10.0803 2.1445 -0.3702
H 11.4512 1.0426 -0.5472
H 11.0422 1.7645 1.0587
H 8.1043 2.0349 -0.7381
H 5.7277 1.8877 -0.9256
