62
 
C 0.9010 -0.6430 -0.0020
N 0.0759 -0.4741 -1.0591
C 0.1433 -1.1778 -2.3323
C -0.1126 -2.6546 -2.0482
C -0.9024 0.3598 -0.6600
C -0.6917 0.6563 0.6688
N 0.4083 -0.0087 1.0839
C 0.9585 -0.0024 2.4407
C 1.5188 1.4031 2.6985
Pt 2.6584 -1.8814 -0.0135
C 4.4159 -3.1199 -0.0250
N 4.4226 -4.4677 0.0061
C 3.2268 -5.2910 0.0135
C 2.3885 -4.9381 -1.2078
C 3.0405 -5.2966 -2.5544
C 3.3540 -6.7874 -2.6967
C 5.7219 -4.8242 0.0114
C 6.5009 -3.6886 0.0092
C 7.8967 -3.7963 -0.0626
C 8.4835 -5.0681 -0.0637
C 7.6820 -6.2200 -0.0287
C 6.2816 -6.1087 -0.0029
N 5.6987 -2.5871 0.0417
C 6.0909 -1.1262 0.0522
C 6.7931 -0.4936 1.3113
C 8.1220 -0.8184 1.6549
C 8.8053 -0.2253 2.7166
C 8.1919 0.7453 3.4896
C 6.8886 1.1364 3.1825
C 6.1906 0.5342 2.1030
H 1.1379 -1.0228 -2.7964
H -0.6544 -0.8332 -3.0271
H 0.5427 -2.9445 -1.2224
H 0.0500 -3.2834 -2.9490
H -1.1397 -2.8251 -1.6613
H -1.7365 0.6830 -1.2699
H -1.3188 1.2780 1.2948
H 1.7611 -0.7665 2.5235
H 0.1536 -0.2871 3.1635
H 1.9072 1.6594 1.7192
H 2.5466 1.6220 3.0600
H 0.7219 2.1330 2.9639
H 2.6424 -5.0452 0.9254
H 3.4619 -6.3729 0.0595
H 2.2689 -3.8232 -1.1608
H 1.4084 -5.4576 -1.1303
H 3.9778 -4.7166 -2.6891
H 2.3353 -5.0055 -3.3636
H 4.1066 -7.1064 -1.9485
H 3.7852 -6.9838 -3.7003
H 2.4331 -7.3954 -2.5733
H 8.5493 -2.9675 -0.1561
H 9.5625 -5.1583 -0.1063
H 8.1531 -7.1939 -0.0441
H 5.6736 -7.0005 -0.0054
H 5.1824 -0.5245 -0.1622
H 6.7770 -0.9502 -0.8052
H 8.6955 -1.4980 1.1055
H 9.8288 -0.5165 2.9234
H 8.7424 1.2000 4.3092
H 6.4392 1.9193 3.7858
H 5.1923 0.8977 1.8966
