71
 
P -1.3500 0.0010 0.7980
N -1.4374 0.5185 -0.9042
C -2.0412 1.8503 -0.9474
C -0.3895 0.3828 -1.9248
C 0.3444 -0.8964 -1.8024
N 1.4848 -0.9526 -0.8228
C 1.7829 -0.1504 0.4455
C 1.1244 1.2160 0.6747
N -0.2231 1.2355 1.3490
C -0.1598 1.0950 2.8060
N -1.1073 -1.8556 0.5573
C -2.2805 -2.7125 0.5161
C 0.1498 -2.6817 0.3477
C 1.4929 -2.3531 -0.4466
Pt -3.3226 0.0026 2.2679
P -5.2952 0.0042 3.7377
N -6.3787 -1.4040 3.8559
C -5.5870 -2.5935 4.1573
C -7.6877 -1.4502 4.5178
C -8.4336 -0.1878 4.3631
N -8.0943 0.9288 5.3147
C -6.8666 1.2839 6.1257
C -5.8330 0.1983 6.4355
N -4.7490 -0.0072 5.4144
C -3.6758 0.9861 5.5008
N -6.4683 1.1483 2.8668
C -6.3745 1.2410 1.4026
C -7.3522 2.2552 3.4269
C -8.4290 2.0915 4.5520
H -2.9017 1.9188 -0.2441
H -2.4276 2.0723 -1.9622
H -1.2860 2.6096 -0.6569
H 0.2694 1.2530 -2.0653
H -0.9526 0.2909 -2.8847
H 0.6963 -1.2777 -2.7880
H -0.4729 -1.6291 -1.6524
H 2.8898 -0.0954 0.5308
H 1.6716 -0.6516 1.4282
H 1.1614 1.8006 -0.2528
H 1.8319 1.7529 1.3431
H 0.5190 1.8553 3.2440
H 0.1890 0.0811 3.1021
H -1.1881 1.2537 3.2259
H -3.0270 -2.4296 1.2790
H -2.0129 -3.7879 0.7294
H -2.6197 -2.6626 -0.5275
H 0.4210 -1.9671 0.9812
H -0.1526 -3.5237 -0.3316
H 1.6546 -3.0023 -1.3535
H 2.4398 -2.5984 0.1146
H -4.6479 -2.6023 3.5600
H -6.1545 -3.5098 3.8966
H -5.3290 -2.6001 5.2359
H -7.6940 -1.8194 5.5534
H -8.2769 -2.1893 3.9264
H -9.5349 -0.3361 4.3673
H -8.3559 0.0271 3.2759
H -7.2602 1.7307 7.0709
H -6.2787 2.1610 5.7945
H -6.3474 -0.7282 6.7261
H -5.3456 0.5232 7.3818
H -3.2579 1.0235 6.5276
H -4.0246 1.9981 5.2006
H -2.8544 0.6863 4.8096
H -5.3331 1.2107 1.0333
H -6.7727 2.2175 1.0133
H -7.0350 0.4609 0.9849
H -6.6349 2.9256 3.8857
H -8.0845 2.5447 2.6215
H -9.4965 2.0163 4.1964
H -8.5121 3.0116 5.1875
