71
 
C 0.9010 -0.6430 -0.0020
N -0.4302 -1.0106 0.0047
C -0.8598 -2.4243 0.0350
C -0.5732 -2.8720 1.4739
C -1.7920 -2.6203 2.3915
C -2.8925 -3.5915 1.9869
C -3.3967 -3.1952 0.5969
C -2.2405 -3.0658 -0.4330
C -1.1166 0.1350 0.2268
C -0.2087 1.1855 0.2797
N 1.0421 0.6922 0.1282
C 2.3483 1.3516 -0.1057
C 2.4625 1.6460 -1.6199
C 1.5296 2.8002 -2.0241
C 1.9849 4.0751 -1.3093
C 1.9192 3.8989 0.2186
C 2.6847 2.6429 0.6902
Pt 2.6584 -1.8814 -0.0135
C 4.4159 -3.1199 -0.0250
N 4.9601 -3.5616 -1.0915
C 4.4548 -3.3076 -2.4329
C 3.1534 -2.4552 -2.3997
C 5.5348 -2.5953 -3.2719
C 6.1371 -4.3526 -0.7716
C 6.3686 -4.0736 0.7218
N 5.1202 -3.4899 1.1339
C 4.6360 -3.4323 2.5049
C 5.6141 -2.6658 3.3939
C 3.2263 -2.8165 2.5945
H -0.1911 -2.8371 -0.7489
H 0.2879 -2.3079 1.8880
H -0.3096 -3.9436 1.4774
H -2.1751 -1.5715 2.3319
H -1.5065 -2.8160 3.4422
H -3.7358 -3.5685 2.7124
H -2.4743 -4.6259 2.0051
H -3.9457 -2.2397 0.6797
H -4.1248 -3.9793 0.2634
H -2.6307 -2.7225 -1.4157
H -1.9638 -4.1356 -0.5901
H -2.1857 0.2245 0.3731
H -0.4680 2.2210 0.4172
H 3.1364 0.6031 0.1457
H 2.2113 0.7351 -2.2044
H 3.5074 1.9289 -1.8780
H 0.4732 2.5742 -1.7734
H 1.5723 2.9532 -3.1220
H 1.3454 4.9312 -1.6154
H 3.0279 4.2966 -1.6267
H 0.8662 3.8452 0.5295
H 2.3488 4.8026 0.7051
H 2.5749 2.4902 1.7838
H 3.7621 2.8536 0.4952
H 4.2350 -4.2849 -2.9161
H 3.3268 -1.4773 -1.9277
H 2.3575 -2.9690 -1.8347
H 2.8034 -2.2803 -3.4345
H 5.7997 -1.6128 -2.8251
H 5.1753 -2.4344 -4.3092
H 6.4627 -3.2036 -3.3457
H 7.0501 -4.0781 -1.3404
H 5.8838 -5.4215 -0.9427
H 7.1373 -3.2750 0.8402
H 6.6708 -4.9825 1.2829
H 4.5823 -4.4796 2.8860
H 5.6997 -1.6164 3.0473
H 6.6169 -3.1442 3.3658
H 5.2625 -2.6820 4.4481
H 3.2329 -1.7564 2.2803
H 2.8805 -2.8727 3.6514
H 2.5115 -3.4026 1.9812
