49
 
C 0.9010 -0.6430 -0.0020
N -0.3481 -1.1090 -0.0031
C -0.7019 -2.5283 0.0063
C 0.6138 -3.3878 -0.0092
C -1.5149 -2.8263 1.2818
C -1.5802 -2.8398 -1.2247
C -1.1464 -0.0162 -0.0030
C -0.3364 1.1056 0.0021
N 0.9490 0.6903 0.0063
C 2.1816 1.4793 0.0341
C 2.1738 2.3507 1.3055
C 3.4124 0.5212 0.0434
C 2.2415 2.3803 -1.2143
Pt 2.6584 -1.8814 -0.0135
C 4.4159 -3.1199 -0.0250
N 4.5105 -4.4835 0.0110
C 3.4912 -5.5210 0.0832
C 5.8313 -4.7692 -0.0138
Cl 6.5347 -6.3820 0.0218
C 6.5379 -3.6016 -0.0676
Cl 8.2926 -3.4646 -0.1199
N 5.6634 -2.5778 -0.0748
C 6.0224 -1.1684 -0.1432
H 1.2534 -3.1833 0.8632
H 1.2428 -3.1920 -0.8909
H 0.3286 -4.4594 0.0023
H -0.9106 -2.6057 2.1865
H -1.8324 -3.8900 1.3117
H -2.4326 -2.1965 1.3232
H -1.0380 -2.6162 -2.1665
H -2.5086 -2.2235 -1.2121
H -1.8917 -3.9061 -1.2326
H -2.2286 -0.0253 -0.0027
H -0.6607 2.1384 0.0098
H 2.1082 1.7116 2.2121
H 1.2936 3.0318 1.3076
H 3.0891 2.9750 1.3715
H 3.3996 -0.1664 0.9030
H 4.3400 1.1261 0.0930
H 3.4363 -0.1015 -0.8651
H 1.3631 3.0606 -1.2582
H 2.2410 1.7630 -2.1383
H 3.1606 3.0040 -1.2056
H 2.4841 -5.1012 0.1086
H 3.6521 -6.1271 1.0025
H 3.5885 -6.1971 -0.7942
H 7.1216 -1.0306 -0.1921
H 5.6692 -0.6525 0.7685
H 5.5987 -0.7237 -1.0658
