57
 
C 0.9010 -0.6430 -0.0020
N -0.3740 -1.1782 0.0886
C -0.8754 -2.5980 0.1145
C -0.0003 -3.7351 0.0253
C 1.4090 -3.6849 -0.1974
C -0.4261 -5.0453 0.0428
C -1.7463 -5.3532 0.0972
C -2.1223 -6.7950 0.0653
C -2.6785 -4.3233 0.1418
C -2.2831 -2.9613 0.1526
C -3.4290 -1.9904 0.1582
C -1.1418 -0.0773 0.0475
C -0.3874 1.0323 -0.0720
N 0.9320 0.7412 -0.0921
C 2.0862 1.7299 -0.0846
C 1.9461 3.1827 -0.0295
C 0.7113 4.0427 0.0169
C 3.0967 4.0198 0.0070
C 4.3830 3.5134 0.0135
C 5.6224 4.3307 0.0351
C 4.5571 2.1853 -0.0079
C 3.4812 1.3309 -0.0602
C 3.9769 0.0177 -0.1169
Pt 2.6584 -1.8814 -0.0135
O 4.3342 -3.0623 -0.0245
C 4.5664 -4.1210 0.7259
C 5.8136 -4.6272 0.4068
C 6.3221 -3.8134 -0.5812
C 5.3634 -2.8503 -0.8164
H 1.4397 -2.9352 -1.0029
H 1.8177 -4.4565 -0.8737
H 1.9051 -3.9002 0.7837
H 0.3041 -5.8507 -0.0249
H -1.2189 -7.4489 0.0165
H -2.7257 -6.9913 -0.8417
H -2.6716 -7.0408 0.9912
H -3.7255 -4.5938 0.1525
H -4.4243 -2.4764 0.1651
H -3.4071 -1.4059 -0.7883
H -3.3861 -1.3690 1.0766
H -2.1940 0.0390 0.0765
H -0.9258 1.9217 -0.1197
H -0.2814 3.6694 0.0433
H 0.7184 4.6990 -0.8753
H 0.7503 4.6424 0.9486
H 2.9926 5.0943 0.0393
H 5.3871 5.4057 0.0433
H 6.2180 4.0739 -0.8714
H 6.2169 4.0513 0.9343
H 5.5830 1.8094 0.0009
H 5.0465 -0.2222 0.0050
H 3.7790 -0.1767 -1.2193
H 3.5293 -0.4020 0.7944
H 3.9096 -4.5305 1.4783
H 6.3037 -5.4892 0.8416
H 7.2824 -3.9132 -1.0725
H 5.4409 -2.0537 -1.5428
