45
 
C 1.0295 -0.6516 -0.0527
N 1.0090 0.6098 -0.2613
C 2.1757 1.3923 -0.5798
C -0.3098 1.1605 -0.0279
C -1.2019 -0.0853 0.0405
N -0.2501 -1.1279 0.3179
C -0.5836 -2.4530 0.7836
Pt 2.7761 -1.8637 -0.2931
P 4.7869 -3.2610 -0.5697
C 5.6759 -3.1670 -2.1514
C 6.0578 -2.6027 0.5434
C 6.6362 -3.3641 1.5724
C 7.6271 -2.7894 2.3895
C 8.0438 -1.4672 2.1850
C 7.4970 -0.7226 1.1459
C 6.5217 -1.2909 0.3301
C 4.3358 -5.0020 -0.4344
C 2.9949 -5.3556 -0.1995
C 2.6070 -6.6951 -0.1484
C 3.5584 -7.6987 -0.3216
C 4.8976 -7.3598 -0.5604
C 5.2917 -6.0115 -0.6205
H 3.0739 0.7330 -0.6838
H 2.3466 2.1310 0.2354
H 2.0032 1.9480 -1.5247
H -0.6600 1.8580 -0.8183
H -0.2865 1.6750 0.9593
H -1.6130 -0.2987 -0.9740
H -2.0311 0.0115 0.7719
H -1.6829 -2.5347 0.9410
H -0.0885 -2.6302 1.7618
H -0.2623 -3.2207 0.0531
H 5.9110 -2.0991 -2.3570
H 4.9331 -3.4635 -2.9311
H 6.5688 -3.8043 -2.2288
H 6.3334 -4.3894 1.7287
H 8.0780 -3.3657 3.1837
H 8.7975 -1.0182 2.8203
H 7.8266 0.2962 0.9672
H 6.1447 -0.6766 -0.4691
H 2.2319 -4.5994 -0.0687
H 1.5667 -6.9512 0.0206
H 3.2517 -8.7369 -0.2765
H 5.6233 -8.1476 -0.7068
H 6.3253 -5.7454 -0.8292
