40
 
C 1.0240 -0.6530 -0.0550
N 1.0512 0.6222 -0.0227
C 2.2517 1.4114 -0.1484
C -0.2746 1.1749 0.1365
C -1.1970 -0.0461 -0.0023
N -0.2836 -1.1608 0.0715
C -0.6285 -2.5177 0.3585
C 0.2006 -3.5778 -0.0518
C -0.1489 -4.9021 0.2442
C -1.3056 -5.1814 0.9778
C -2.1212 -4.1388 1.4145
C -1.7946 -2.8177 1.0993
Pt 2.7802 -1.8697 -0.2955
N 4.4956 -3.0582 -0.5304
C 4.7463 -3.5491 -1.7691
C 5.8300 -4.4158 -1.9882
O 6.1348 -4.9038 -3.2187
C 5.4873 -4.5637 -4.3904
C 6.6038 -4.8007 -0.8877
C 6.3117 -4.3014 0.3856
C 5.2546 -3.3999 0.5430
H 3.1469 0.7543 -0.2612
H 2.3721 2.0573 0.7449
H 2.1622 2.0607 -1.0482
H -0.5283 1.9404 -0.6286
H -0.3382 1.6080 1.1580
H -1.6307 -0.0840 -1.0283
H -2.0094 -0.0226 0.7487
H 1.0965 -3.3901 -0.6198
H 0.4779 -5.7158 -0.0942
H -1.5701 -6.2048 1.2125
H -3.0077 -4.3535 2.0001
H -2.4455 -2.0396 1.4706
H 4.1070 -3.2313 -2.5804
H 5.9092 -5.1539 -5.2282
H 5.6253 -3.4817 -4.6091
H 4.4043 -4.7965 -4.3095
H 7.4253 -5.4941 -1.0177
H 6.8889 -4.6231 1.2430
H 4.9929 -3.0338 1.5269
