56
 
P 0.9706 -0.0956 -0.0008
C 0.1992 -1.9107 -0.0748
C -1.3391 -2.0346 -0.0920
C 0.6996 -2.7443 -1.2918
C 0.6808 -2.7726 1.1180
C 0.5058 0.6934 1.7349
C 1.1203 -0.0157 2.9608
C 1.0200 2.1483 1.8711
C -1.0287 0.8065 1.9842
C 0.4450 0.8311 -1.6185
C -1.0957 0.9189 -1.7513
C 0.9327 2.2970 -1.6165
C 0.9883 0.2367 -2.9314
Pt 3.4306 -0.0956 -0.0008
N 5.5306 -0.0956 -0.0008
C 6.1662 -0.6205 1.0747
C 7.5491 -0.5366 1.1779
C 8.2874 0.0978 0.1615
O 9.6362 0.2392 0.2388
C 10.3981 -0.1386 1.3283
C 7.6042 0.6124 -0.9507
C 6.2103 0.5079 -1.0108
H -1.8023 -1.7277 -1.0268
H -1.8319 -1.5421 0.7326
H -1.6417 -3.0987 0.0042
H 0.2652 -2.4497 -2.2462
H 0.3303 -3.7955 -1.2195
H 1.8082 -2.8019 -1.3518
H 0.1990 -2.4861 2.0436
H 1.7911 -2.8263 1.1894
H 0.3169 -3.8224 1.0350
H 2.2261 -0.0077 2.9113
H 0.7716 -1.0145 3.1717
H 0.7980 0.5053 3.8922
H 2.1205 2.2081 1.7644
H 0.7546 2.5558 2.8766
H 0.5185 2.8606 1.2085
H -1.5317 -0.1513 2.0976
H -1.5465 1.4426 1.2430
H -1.2450 1.2854 2.9630
H -1.5743 1.3275 -0.8490
H -1.5471 -0.0335 -2.0231
H -1.4008 1.5776 -2.5911
H 0.5183 2.8751 -0.7911
H 0.5434 2.8358 -2.5128
H 2.0370 2.3756 -1.6342
H 0.5816 -0.7390 -3.1725
H 2.0953 0.2030 -2.9382
H 0.6459 0.8529 -3.7950
H 5.5926 -1.0813 1.8671
H 8.0253 -0.9480 2.0559
H 11.4660 0.0847 1.1375
H 10.2901 -1.2294 1.5086
H 10.0737 0.4228 2.2330
H 8.1399 1.1109 -1.7498
H 5.6651 0.9296 -1.8455
