38
 
C -0.3280 -1.0820 0.0030
N 0.9456 -0.6620 0.1181
H 1.7980 -1.2546 0.2247
C 0.8831 0.6812 0.0545
Cl 2.2703 1.7497 0.1429
C -0.4367 1.0535 -0.0924
Cl -1.0668 2.6851 -0.2168
N -1.1911 -0.0581 -0.1273
Pt -0.9444 -3.1417 0.0167
P -1.6497 -5.4984 0.0323
N -2.8321 -6.0596 1.2838
C -2.2677 -5.9358 2.6493
C -4.0314 -5.1630 1.3234
N -2.9480 -5.5509 -1.2196
C -2.4020 -5.3150 -2.5634
C -3.6638 -6.8580 -1.2700
N -0.1703 -6.4447 0.3623
C -0.4009 -7.8943 0.2587
C 0.9013 -6.0747 -0.5823
H -2.2282 -0.1207 -0.2284
H -1.4018 -6.5989 2.8182
H -3.0383 -6.2200 3.4088
H -1.9800 -4.8821 2.8882
H -4.5547 -5.0223 0.3617
H -3.7858 -4.1354 1.6759
H -4.8076 -5.6023 1.9879
H -1.8368 -4.3655 -2.6108
H -3.2422 -5.2363 -3.2935
H -1.7563 -6.1611 -2.8954
H -4.2162 -7.1054 -0.3432
H -2.9798 -7.7053 -1.4796
H -4.4654 -6.8253 -2.0411
H -1.2267 -8.2180 0.9203
H 0.5140 -8.4368 0.5924
H -0.6127 -8.2086 -0.7885
H 1.1569 -4.9966 -0.4884
H 0.6244 -6.3038 -1.6381
H 1.8278 -6.6551 -0.3577
