48
 
P 0.9325 -0.0666 -0.0316
C 0.1653 -0.6162 1.6997
C -1.3722 -0.6762 1.8169
C 0.6776 -2.0050 2.1827
C 0.6405 0.3128 2.8430
C 0.4590 1.8120 -0.3413
C 1.0672 2.8117 0.6640
C 0.9691 2.3287 -1.7101
C -1.0766 2.0738 -0.3828
C 0.3994 -1.3819 -1.3506
C -1.1420 -1.4836 -1.4700
C 0.8856 -0.9933 -2.7636
C 0.9371 -2.8070 -1.1261
Pt 3.3925 -0.0666 -0.0316
C 5.5425 -0.0666 -0.0316
N 6.2898 1.0532 -0.0278
C 7.5546 0.5970 -0.0354
C 7.5266 -0.7795 -0.0443
O 6.2716 -1.1589 -0.0420
H -1.8298 -1.5009 1.2765
H -1.8728 0.2460 1.5617
H -1.6712 -0.8680 2.8687
H 0.2520 -2.8511 1.6465
H 0.3096 -2.2160 3.2151
H 1.7869 -2.0683 2.2210
H 0.1472 1.2759 2.8105
H 1.7502 0.3789 2.9106
H 0.2820 -0.0470 3.8345
H 2.1729 2.7728 0.6434
H 0.7183 2.7482 1.6823
H 0.7374 3.8448 0.4064
H 2.0700 2.2476 -1.7974
H 0.6967 3.4041 -1.8387
H 0.4689 1.8775 -2.5725
H -1.5753 1.9258 0.5722
H -1.5935 1.5273 -1.1916
H -1.2998 3.1424 -0.5867
H -1.6199 -0.5068 -1.6281
H -1.5970 -1.9955 -0.6249
H -1.4488 -2.1190 -2.3266
H 0.4687 -0.0462 -3.1023
H 0.4953 -1.7148 -3.5198
H 1.9897 -0.9876 -2.8443
H 0.5249 -3.2976 -0.2515
H 2.0439 -2.8270 -1.0953
H 0.5918 -3.4740 -1.9496
H 8.4358 1.2245 -0.0353
H 8.3781 -1.4467 -0.0525
