27
 
C -0.2939 -1.1526 -0.0037
N -1.2188 -0.0653 0.0171
C -2.7391 -0.1059 0.0098
C -0.4226 1.0999 0.0061
Cl -0.7839 2.8990 0.0023
C 0.9012 0.7101 -0.0096
Cl 2.3352 1.7735 -0.0106
N 0.9791 -0.6339 -0.0173
C 2.2658 -1.3345 0.0047
Pt -0.5443 -3.4456 0.0350
N -0.7417 -5.5342 0.0680
C 0.3173 -6.4114 -0.0737
C 0.1062 -7.7915 -0.2684
Cl 1.3940 -8.8910 -0.7613
C -1.1520 -8.3028 -0.0628
C -2.1748 -7.4533 0.3264
C -1.9825 -6.0645 0.2643
H -3.1624 -1.1400 0.0017
H -3.2132 0.3954 -0.8812
H -3.2170 0.3952 0.8897
H 3.1148 -0.6146 0.0148
H 2.3893 -1.9580 -0.8877
H 2.3744 -1.9475 0.9147
H 1.3176 -6.0645 -0.1042
H -1.3176 -9.3586 -0.1871
H -3.1120 -7.8734 0.6309
H -2.8292 -5.4124 0.4000
