59
 
C -0.4152 -1.0193 -0.5005
N 0.7875 -0.2339 -0.6276
C 2.2450 -0.6700 -0.8400
C 0.3052 1.0788 -0.7409
C 0.9286 2.4626 -0.8638
C -1.0803 1.0653 -0.7085
C -2.0688 2.1985 -0.5941
N -1.5726 -0.1641 -0.6268
C -3.1529 -0.2716 -0.5891
Pt -0.5714 -3.3402 -0.3183
C -0.7962 -5.5629 -0.1502
N -2.0103 -6.1963 -0.1785
C -3.3005 -5.5177 -0.1291
C -3.9508 -5.8929 1.1897
C -3.0785 -4.0023 -0.1814
C -1.7522 -7.5380 -0.1007
C -0.4113 -7.7163 -0.0575
C 0.1668 -8.9996 0.0109
C -0.6857 -10.1072 -0.0025
C -2.0594 -9.9320 -0.0335
C -2.6024 -8.6618 -0.0565
N 0.1910 -6.5089 -0.0943
C 1.6250 -6.3164 -0.0040
C 1.9075 -6.1633 1.3704
C 2.7258 -7.0588 2.0707
C 2.5091 -7.1405 3.4191
C 1.3504 -6.3733 3.9570
C 1.3791 -5.0675 3.3449
C 1.3262 -5.0953 2.0133
H 2.4151 -1.7854 -0.9010
H 2.9492 -0.2568 -0.0882
H 2.6508 -0.3125 -1.8401
H 2.0061 2.4707 -0.9460
H 0.6323 3.0844 0.0244
H 0.4856 3.0521 -1.7131
H -1.6167 3.1552 -0.6247
H -2.6224 2.1312 0.4097
H -2.8425 2.1106 -1.3873
H -3.8969 0.6017 -0.5073
H -3.5932 -0.2788 0.5081
H -3.6322 -0.8071 -1.4967
H -3.9533 -5.8116 -0.9717
H -3.2576 -5.6355 2.0188
H -4.1429 -6.9813 1.2116
H -4.9014 -5.3483 1.2977
H -2.4407 -3.7345 0.6801
H -4.0275 -3.4586 -0.0686
H -2.6522 -3.7477 -1.1639
H 1.2262 -9.1815 0.0310
H -0.3087 -11.1103 -0.0010
H -2.7278 -10.7757 -0.0597
H -3.6573 -8.6798 -0.0813
H 1.9233 -5.4230 -0.5310
H 2.1929 -7.2196 -0.2522
H 3.3321 -7.8612 1.6581
H 3.1593 -7.9618 3.8089
H 0.7353 -6.5301 4.9630
H 1.1987 -4.0562 3.7238
H 0.7422 -4.2863 1.5847
