50
 
C -0.3280 -1.0820 0.0030
N 0.9449 -0.7634 -0.3045
H 1.7134 -1.4271 -0.5480
C 1.0068 0.5762 -0.2843
Cl 2.4430 1.5122 -0.6634
C -0.2354 1.0608 0.0564
Cl -0.6651 2.7521 0.2353
N -1.0800 0.0189 0.2210
Pt -0.9444 -3.1417 0.0167
C -1.5608 -5.2014 0.0303
N -2.8537 -5.6143 0.0481
C -4.0134 -4.7223 0.0741
C -3.9529 -3.7840 -1.1299
C -5.1210 -2.7968 -1.1840
C -4.9992 -1.9233 -2.4322
C -2.7983 -6.9731 0.0480
C -1.4848 -7.3622 0.0407
C -1.1037 -8.7116 0.0317
C -2.1130 -9.6818 0.0427
C -3.4680 -9.2950 0.0650
C -3.8286 -7.9279 0.0660
N -0.6940 -6.2709 0.0570
C 0.7833 -6.3218 0.1012
C 1.2968 -6.4559 -1.2978
C 1.0366 -5.3950 -2.1633
C 1.3753 -5.4851 -3.5077
C 1.9922 -6.6389 -4.0000
C 2.3065 -7.6915 -3.1331
C 1.9670 -7.6046 -1.7753
H -2.0911 0.0722 0.4706
H -3.9804 -4.1165 1.0060
H -4.9575 -5.3076 0.0683
H -3.9666 -4.4071 -2.0534
H -3.0000 -3.1985 -1.0544
H -5.1069 -2.1493 -0.2804
H -6.0894 -3.3432 -1.2180
H -4.0387 -1.3646 -2.4176
H -5.8352 -1.1952 -2.4755
H -5.0315 -2.5554 -3.3464
H -0.0670 -9.0202 0.0162
H -1.8434 -10.7323 0.0385
H -4.2303 -10.0637 0.0811
H -4.8720 -7.6508 0.0838
H 1.1055 -7.1973 0.7120
H 1.2056 -5.4217 0.5932
H 0.5472 -4.5053 -1.7822
H 1.1372 -4.6601 -4.1619
H 2.2257 -6.7155 -5.0530
H 2.7945 -8.5782 -3.5224
H 2.2004 -8.4407 -1.1239
