12
 
C -0.3280 -1.0820 0.0030
N -1.1595 -0.0294 0.1194
H -2.1986 -0.0529 0.2128
C -0.3665 1.0573 0.0632
Cl -0.9345 2.7142 0.1420
C 0.9414 0.6409 -0.0666
Cl 2.3693 1.6558 -0.1455
N 0.9576 -0.7020 -0.1172
Pt -0.9444 -3.1417 0.0167
C -1.5608 -5.2014 0.0303
O -1.9100 -6.3683 0.0380
H 1.7907 -1.3248 -0.2048
