36
 
C -0.3714 -1.1279 -0.0069
N 0.6384 -0.2184 0.5070
C 1.9974 -0.5596 1.1666
C 0.1232 1.0938 0.2518
Cl 0.7108 2.8393 0.5535
C -1.1184 0.9265 -0.3680
Cl -2.2347 2.1972 -0.8952
N -1.4009 -0.3860 -0.5378
C -2.6451 -0.8497 -1.1502
Pt -0.5317 -3.4736 -0.0493
N -0.7298 -5.6779 -0.1009
C -0.6294 -6.3235 -1.3503
C 0.4925 -6.4378 0.3048
C -2.1471 -6.1241 0.0859
C -3.2630 -5.3127 -0.3495
C -4.4588 -5.3187 0.2901
C -4.7680 -6.3991 1.0059
C -3.8392 -7.4206 1.1553
C -2.4868 -7.2114 0.8608
H 2.2011 -1.6540 1.2563
H 2.1054 -0.1634 2.2061
H 2.8871 -0.1520 0.6198
H -3.2587 0.0110 -1.4477
H -3.2328 -1.4486 -0.4525
H -2.4343 -1.4331 -2.0444
H 0.4904 -6.0541 -1.8176
H -1.2084 -6.2721 -2.0796
H -0.8418 -7.5411 -1.0799
H 1.3438 -5.8525 0.0469
H 0.9027 -7.4259 -0.4607
H 0.3299 -7.1355 0.9718
H -3.1039 -4.5077 -1.0458
H -5.1441 -4.5238 0.1555
H -5.7446 -6.4510 1.3922
H -4.1653 -8.3394 1.5411
H -1.7340 -7.8801 1.1886
