50
 
C 1.0240 -0.6530 -0.0550
N 1.0493 0.6223 -0.1279
C 2.2657 1.4115 -0.2637
C 3.5276 0.5167 -0.3918
C 2.1542 2.3462 -1.4739
C -0.2825 1.1658 0.0741
C -1.1915 -0.0609 -0.0579
N -0.2765 -1.1486 0.1732
C -0.6527 -2.5199 0.4668
C 0.5931 -3.4158 0.5428
C -1.4222 -2.5605 1.8028
Pt 2.7802 -1.8697 -0.2955
P 4.7896 -3.2619 -0.5706
N 5.6815 -3.2971 -2.1024
C 6.1019 -1.9735 -2.5985
C 6.6679 -4.3461 -2.2486
O 6.0221 -2.5615 0.3731
C 5.6637 -2.7514 1.7256
O 4.1087 -4.8198 -0.7405
C 3.5092 -5.2107 0.4669
H 2.3697 2.0437 0.6483
H 3.4651 -0.1189 -1.2913
H 3.6477 -0.1406 0.4854
H 4.4301 1.1518 -0.4634
H 2.0367 1.7553 -2.4057
H 3.0599 2.9828 -1.5512
H 1.2831 3.0286 -1.3721
H -0.5889 1.9428 -0.6559
H -0.3283 1.5699 1.1102
H -1.5373 -0.1582 -1.1140
H -2.0655 -0.0053 0.6209
H -1.3226 -2.9042 -0.3337
H 1.2822 -3.0221 1.3158
H 1.1018 -3.4593 -0.4380
H 0.2864 -4.4461 0.8291
H -0.7932 -2.1676 2.6306
H -1.7327 -3.5972 2.0498
H -2.3487 -1.9486 1.7530
H 5.3139 -1.2032 -2.4370
H 6.2520 -2.0201 -3.7016
H 7.0494 -1.6406 -2.1293
H 6.1823 -5.3247 -2.0626
H 7.5089 -4.1741 -1.5539
H 7.0188 -4.3597 -3.3046
H 6.5425 -2.5373 2.3682
H 5.3843 -3.8021 1.9732
H 4.8535 -2.0481 2.0127
H 2.7081 -5.9419 0.2286
H 3.0182 -4.3753 1.0006
H 4.2441 -5.7167 1.1258
