29
 
N -0.6590 -1.2280 -0.0510
C -1.4180 -0.1091 0.0896
F -2.7667 -0.2172 0.1652
C -0.8053 1.1471 0.1535
C 0.5858 1.2343 0.0508
C 1.3453 0.0711 -0.0889
C 0.6972 -1.1658 -0.1238
Pt -1.5756 -3.1044 -0.2726
N -2.4923 -4.9807 -0.4941
C -1.7154 -6.0756 -0.5698
C -0.2440 -5.8492 -0.6329
C -2.3145 -7.3461 -0.5819
C -3.7115 -7.4385 -0.4873
C -4.4879 -6.2763 -0.4421
C -3.8471 -5.0322 -0.4758
C -4.6097 -3.7445 -0.4864
H -1.3999 2.0443 0.2653
H 1.0740 2.2003 0.0733
H 2.4222 0.1277 -0.1843
H 1.2672 -2.0757 -0.2592
H -0.0426 -4.7313 -0.5683
H 0.1411 -6.2562 -1.5942
H 0.2459 -6.3795 0.2081
H -1.7180 -8.2470 -0.6381
H -4.1971 -8.4060 -0.4587
H -5.5677 -6.3444 -0.3813
H -5.7069 -3.9230 -0.4460
H -4.3862 -3.2224 -1.4410
H -4.2863 -3.0843 0.3458
