23
 
N -1.4011 -0.1037 -0.0646
C -0.5333 -0.7844 -0.9270
C 0.8184 -0.9479 -0.6024
C 1.3428 -0.2131 0.3648
C 0.5493 0.7140 1.0301
C -0.8504 0.6562 0.9096
Pt -3.4787 -0.1999 -0.2873
N -5.5599 -0.2772 -0.4940
C -6.3783 0.7461 -0.0123
C -7.7592 0.5647 0.1086
F -8.5122 1.4118 0.8093
C -8.3253 -0.4755 -0.4835
C -7.5457 -1.3525 -1.2291
C -6.1464 -1.3264 -1.1102
H -0.8926 -1.2061 -1.8159
H 1.4205 -1.6288 -1.1065
H 2.3462 -0.3344 0.6086
H 0.9977 1.4392 1.6313
H -1.4638 1.1952 1.5606
H -5.9632 1.6683 0.2668
H -9.3508 -0.6170 -0.3885
H -8.0065 -2.0359 -1.8680
H -5.5638 -2.1112 -1.4788
