23
 
N -0.6590 -1.2280 -0.0510
C -1.4394 -0.1335 0.0197
C -2.9113 -0.3480 -0.0793
C -0.8418 1.1380 0.0794
C 0.5584 1.2332 0.0743
C 1.3355 0.0746 0.0016
C 0.6971 -1.1611 -0.0730
Pt -1.5756 -3.1044 -0.2726
O -2.4704 -4.9360 -0.4889
C -1.8501 -6.0827 -0.5968
N -2.7317 -7.0908 -0.7578
C -3.9384 -6.4844 -0.7604
C -3.7584 -5.1311 -0.5711
H -3.1170 -1.4599 -0.1702
H -3.2805 0.1672 -0.9941
H -3.4170 0.0803 0.8086
H -1.4405 2.0388 0.1020
H 1.0453 2.1996 0.1086
H 2.4173 0.1297 -0.0121
H 1.2745 -2.0741 -0.1461
H -0.7783 -6.2106 -0.5262
H -4.8816 -6.9931 -0.9089
H -4.5139 -4.3565 -0.5559
