39
 
N -1.4010 -0.1999 -0.0605
C -0.6182 0.8198 -0.5528
C 0.7675 0.7013 -0.6436
C 1.3805 -0.3239 -0.0131
F 2.7135 -0.4537 -0.1143
C 0.6159 -1.2059 0.7294
C -0.7771 -1.2107 0.5982
Pt -3.4697 -0.2239 -0.2775
P -5.9152 -0.2910 -0.5083
C -6.6105 1.3703 -0.7352
C -6.2927 -1.2310 -2.0532
C -5.3026 -1.8564 -2.8264
C -5.5595 -2.2300 -4.1402
C -6.8379 -2.2875 -4.5747
C -7.8629 -1.9954 -3.6947
C -7.5934 -1.3499 -2.4916
C -6.6174 -1.0985 0.9308
C -5.7834 -1.6030 1.9202
C -6.2758 -2.4131 2.9319
C -7.6120 -2.4998 3.1188
C -8.4575 -1.7804 2.2961
C -7.9805 -1.2177 1.1137
H -1.0535 1.7361 -0.8704
H 1.3663 1.3886 -1.1830
H 1.1002 -1.8897 1.3699
H -1.3485 -2.0229 0.9840
H -6.1496 1.8670 -1.5846
H -6.3485 1.9585 0.1714
H -7.6734 1.3413 -0.8330
H -4.3311 -1.9894 -2.4461
H -4.7868 -2.4842 -4.8154
H -7.0217 -2.5807 -5.5716
H -8.8545 -2.2233 -3.9679
H -8.3709 -0.9296 -1.9088
H -4.7506 -1.3879 1.8896
H -5.6407 -2.9465 3.5847
H -7.9751 -3.1040 3.9039
H -9.4753 -1.6911 2.5585
H -8.6453 -0.8391 0.3824
