39
 
P 0.9165 0.0240 -0.0495
O -0.1281 1.3674 -0.2671
C 0.3867 2.3557 0.6394
C -0.3215 3.6938 0.5365
O 0.3952 -1.0068 -1.3021
C 0.6488 -0.4415 -2.5514
C 2.1503 -0.2909 -2.7955
O 0.4426 -0.2730 1.5772
C -0.9789 -0.4266 1.5839
C -1.5148 -0.5624 2.9943
Pt 3.3765 0.0240 -0.0495
N 5.4765 0.0240 -0.0495
C 5.9310 -0.1759 1.3326
C 5.9357 -1.0718 -0.9135
C 5.9345 1.3198 -0.5681
H 1.4799 2.5488 0.4967
H 0.2154 2.0477 1.6939
H -0.0740 4.2007 -0.4166
H 0.0253 4.3409 1.3774
H -1.4158 3.5535 0.6383
H 0.0762 0.5009 -2.6901
H 0.2448 -1.1601 -3.2992
H 2.6051 0.4501 -2.1073
H 2.3094 0.0585 -3.8312
H 2.6392 -1.2751 -2.6373
H -1.2886 -1.3108 0.9870
H -1.5216 0.4696 1.2109
H -1.1179 -1.4812 3.4634
H -2.6265 -0.6217 2.9500
H -1.2408 0.3311 3.5962
H 5.5396 -1.1370 1.7290
H 5.5429 0.6352 1.9851
H 7.0430 -0.1855 1.3900
H 5.5507 -2.0441 -0.5384
H 7.0478 -1.1142 -0.9481
H 5.5475 -0.9344 -1.9456
H 5.5495 2.1459 0.0673
H 5.5443 1.4797 -1.5963
H 7.0465 1.3709 -0.5905
