22
 
N -1.3900 -0.1120 -0.0540
C -0.8108 1.1069 -0.0052
C 0.5757 1.2249 -0.0053
C 1.4007 0.0692 -0.0484
N 2.8492 0.1655 -0.1549
C 3.5643 1.4365 -0.2425
C 3.7201 -1.0002 -0.2755
C 0.7305 -1.1853 -0.0311
C -0.6611 -1.2485 -0.0467
Pt -3.4756 -0.2017 -0.2821
C -5.6110 -0.2936 -0.5156
O -6.8207 -0.3457 -0.6479
H -1.4345 1.9918 -0.0197
H 0.9410 2.2340 -0.0071
H 2.9462 2.3402 -0.1820
H 4.0967 1.4924 -1.2166
H 4.3091 1.5062 0.5770
H 3.2209 -1.9755 -0.2441
H 4.4666 -0.9976 0.5451
H 4.2537 -0.9603 -1.2494
H 1.2235 -2.1381 -0.0422
H -1.1656 -2.2056 -0.0798
