105
 
P 0.9274 -0.0238 0.0645
C 0.2521 1.3203 -1.0422
C 0.8156 2.6679 -0.5754
C 0.7030 3.5580 -1.8051
C 1.1559 2.6699 -2.9476
C 0.8672 1.2470 -2.4584
C 0.3361 -1.6356 -0.6274
C -1.1912 -1.7221 -0.7434
C -1.3950 -2.9151 -1.6473
C -0.3257 -2.7161 -2.7071
C 0.8683 -2.0609 -1.9949
C 0.3531 0.4317 1.7677
C -1.1617 0.4990 2.0010
C -1.2623 0.3606 3.5214
C -0.2919 -0.7592 3.8369
C 0.7694 -0.6539 2.7571
Pt 3.3874 -0.0238 0.0645
P 5.8474 -0.0238 0.0645
C 6.6453 1.6399 0.1884
C 6.8001 2.2655 1.4666
C 6.3983 1.6939 2.7963
C 7.3058 3.5590 1.5621
C 7.6053 4.3051 0.4371
C 8.1093 5.6969 0.5733
C 7.3991 3.7673 -0.8169
C 6.9239 2.4672 -0.9663
C 6.6720 2.0956 -2.3856
C 6.3379 -0.9977 1.6653
C 5.2818 -1.5539 2.4784
C 3.8151 -1.4718 2.1892
C 5.5565 -2.1411 3.7437
C 6.8375 -2.2745 4.2204
C 7.1845 -2.8812 5.5382
C 7.8669 -1.8221 3.4750
C 7.7032 -1.1820 2.2459
C 9.1032 -0.7294 1.8344
C 6.2876 -0.6551 -1.7277
C 5.5388 -0.5497 -2.9596
C 4.1680 -0.0042 -3.0407
C 6.1410 -0.8844 -4.2173
C 7.4534 -1.3624 -4.2920
C 8.1892 -1.7091 -5.5439
C 8.1486 -1.5251 -3.1452
C 7.5857 -1.1807 -1.9352
C 8.4464 -1.3474 -0.8556
H -0.8518 1.3828 -1.1327
H 1.8991 2.5576 -0.3371
H 0.2862 3.0784 0.3086
H 1.2760 4.5105 -1.7438
H -0.3706 3.7842 -1.9634
H 2.2595 2.7738 -3.1002
H 0.6598 2.9349 -3.9058
H 1.8686 0.8276 -2.3224
H 0.3324 0.6225 -3.2010
H 0.6248 -2.4568 0.0699
H -1.5914 -0.8133 -1.2372
H -1.7196 -1.9002 0.2133
H -2.4294 -2.9755 -2.0591
H -1.1756 -3.8369 -1.0708
H -0.7320 -1.9628 -3.4193
H -0.0716 -3.6371 -3.2700
H 1.2163 -1.2513 -2.6374
H 1.7370 -2.7343 -1.8453
H 0.7672 1.4112 2.0963
H -1.6735 -0.3706 1.5769
H -1.6396 1.4201 1.6079
H -2.2809 0.1405 3.9107
H -0.8782 1.2913 3.9854
H -0.8011 -1.7400 3.7072
H 0.1294 -0.7278 4.8686
H 0.8704 -1.6631 2.2900
H 1.6552 -0.2731 3.2319
H 5.6375 0.9243 2.7410
H 5.8067 2.4372 3.3627
H 7.3040 1.4094 3.3731
H 7.4256 4.0080 2.5386
H 8.2013 5.9767 1.6427
H 7.4039 6.3973 0.0790
H 9.1076 5.7538 0.0966
H 7.5889 4.3803 -1.6933
H 6.8726 2.8688 -3.1510
H 5.5907 1.9272 -2.4371
H 7.3419 1.2783 -2.6829
H 3.2991 -1.7291 1.2485
H 3.4964 -0.7464 2.9359
H 3.4151 -2.4250 2.6037
H 4.7556 -2.4881 4.3881
H 6.2876 -3.2090 6.0907
H 7.7481 -2.1319 6.1427
H 7.8521 -3.7485 5.3420
H 8.8444 -1.9540 3.9309
H 9.9296 -1.1475 2.4377
H 9.2555 0.3581 1.9420
H 9.5755 -1.2948 1.0534
H 3.8356 0.2624 -2.0307
H 3.5106 -0.7555 -3.5206
H 4.1688 0.8958 -3.6986
H 5.6070 -0.7390 -5.1460
H 7.5595 -1.5587 -6.4341
H 8.5132 -2.7718 -5.4708
H 9.1116 -1.0817 -5.6183
H 9.1743 -1.8936 -3.2003
H 9.4531 -1.7593 -1.0820
H 7.9212 -2.0677 -0.1946
H 8.5703 -0.2981 -0.5135
