53
 
P -0.0940 -2.5890 -0.0020
N -1.3054 -3.1781 -1.1557
C -0.5914 -4.2215 -1.9347
C -2.3455 -3.9366 -0.4015
O 0.9631 -1.8176 -0.9998
C 1.5157 -0.6930 -0.5076
C 2.9121 -0.6281 -0.5059
C 3.5727 0.4802 0.0152
C 2.8419 1.5540 0.5168
C 1.4452 1.5245 0.4969
C 0.7451 0.4008 0.0050
C -0.7638 0.4445 0.0319
C -1.3977 1.6080 -0.4535
C -2.7907 1.7130 -0.4810
C -3.5817 0.6813 0.0164
C -2.9859 -0.4601 0.5390
C -1.5949 -0.6058 0.5359
O -1.0961 -1.7610 1.0146
Pt 1.4250 -4.0575 1.2581
P 2.9440 -5.5260 2.5182
N 2.7613 -5.7351 4.2700
C 1.4199 -6.2267 4.6502
C 3.8469 -6.4139 4.9454
O 2.6546 -7.1352 2.0365
C 3.0677 -7.2565 0.6941
O 4.3204 -4.5211 2.6310
C 4.8918 -4.3817 1.3527
H 0.2276 -3.7845 -2.5369
H -1.2774 -4.7601 -2.6251
H -0.1330 -5.0056 -1.2693
H -2.9161 -3.2982 0.2934
H -1.9239 -4.7810 0.2043
H -3.0899 -4.3868 -1.0964
H 3.4876 -1.4601 -0.8925
H 4.6543 0.5027 0.0325
H 3.3606 2.4117 0.9254
H 0.9098 2.3756 0.9006
H -0.8130 2.4292 -0.8493
H -3.2599 2.5970 -0.8916
H -4.6604 0.7601 -0.0046
H -3.6132 -1.2513 0.9263
H 0.6134 -5.7206 4.0692
H 1.2174 -5.9855 5.7183
H 1.3261 -7.3251 4.5177
H 4.7863 -5.8592 4.7555
H 3.9173 -7.4621 4.6017
H 3.6616 -6.3729 6.0424
H 3.1008 -8.3326 0.4258
H 4.1043 -6.8955 0.5173
H 2.3449 -6.7556 0.0144
H 5.5430 -3.4838 1.3628
H 4.1350 -4.1994 0.5565
H 5.5480 -5.2458 1.1107
