78
 
P 0.9320 0.0280 0.0678
C 0.0984 1.2775 -1.0225
C 0.5476 2.7175 -0.7099
C 0.2469 3.4637 -2.0003
C 0.7989 2.5352 -3.0567
C 0.5874 1.1300 -2.4883
C 0.4497 -1.6219 -0.5928
C 0.8141 -1.9395 -2.0314
C 0.6845 -3.4491 -2.0635
C 1.3669 -3.8797 -0.7776
C 1.1326 -2.7336 0.2098
C 0.4730 0.4272 1.8110
C 1.0668 -0.5855 2.7813
C 0.8315 0.0761 4.1215
C 1.1786 1.5374 3.8653
C 0.9683 1.7611 2.3583
Pt 3.3920 0.0280 0.0678
P 5.8520 0.0280 0.0678
C 6.5370 1.6766 -0.2331
C 6.1787 2.6878 0.6809
C 6.4759 4.0272 0.4223
C 7.1296 4.3771 -0.7578
C 7.5123 3.3821 -1.6646
C 7.2229 2.0313 -1.4060
C 6.3499 -0.2615 1.7839
C 5.4120 -0.5413 2.7881
C 5.8343 -0.7293 4.1149
C 7.1923 -0.6424 4.4406
C 8.1332 -0.4041 3.4379
C 7.7160 -0.2247 2.1153
C 6.3017 -1.1036 -1.2890
C 5.3202 -1.7688 -2.0431
C 5.7059 -2.7091 -3.0106
C 7.0565 -2.9885 -3.2191
C 8.0135 -2.3129 -2.4615
O 9.1973 -2.5559 -2.6251
N 7.6203 -1.3877 -1.5201
H -1.0111 1.2425 -0.9980
H 1.6495 2.7532 -0.5337
H 0.0174 3.1839 0.1386
H 0.6867 4.4857 -2.0568
H -0.8534 3.5299 -2.1210
H 1.8987 2.7131 -3.1199
H 0.3726 2.6881 -4.0719
H 1.5870 0.6392 -2.5549
H -0.1573 0.5738 -3.0842
H -0.6574 -1.7582 -0.5069
H 1.8648 -1.6458 -2.2183
H 0.1282 -1.4948 -2.7764
H 1.1220 -3.9116 -2.9744
H -0.3943 -3.7143 -2.0014
H 2.4609 -3.9077 -0.9760
H 1.0439 -4.8797 -0.4182
H 2.1380 -2.3899 0.5497
H 0.5295 -3.0312 1.0928
H -0.6359 0.3915 1.9345
H 2.1524 -0.6808 2.5889
H 0.5889 -1.5847 2.7416
H 1.3937 -0.3797 4.9662
H -0.2572 0.0051 4.3407
H 2.2599 1.6938 4.0673
H 0.5870 2.2124 4.5217
H 1.9626 1.9809 1.9139
H 0.2571 2.5854 2.1608
H 5.6258 2.4478 1.5814
H 6.1680 4.7965 1.1213
H 7.3234 5.4212 -0.9743
H 8.0033 3.6677 -2.5854
H 7.4814 1.2913 -2.1481
H 4.3641 -0.6160 2.5437
H 5.1134 -0.9361 4.8960
H 7.5188 -0.7654 5.4670
H 9.1864 -0.3513 3.6862
H 8.4618 -0.0425 1.3531
H 4.2692 -1.5860 -1.8740
H 4.9605 -3.2386 -3.5920
H 7.3555 -3.7292 -3.9554
H 8.3569 -0.9113 -0.9534
