39
 
N -0.3280 -1.0820 0.0030
C -1.0943 0.0146 -0.0622
N -0.3357 1.1356 -0.0205
C -0.7856 2.5074 -0.0899
C -2.1534 2.8154 -0.2450
C -2.5747 4.1429 -0.3538
C -1.6434 5.1808 -0.3052
C -0.2892 4.8944 -0.1369
C 0.1389 3.5711 -0.0290
C 0.9444 0.7023 0.0816
C 0.9431 -0.6703 0.0897
Pt -0.9301 -3.0938 0.0163
N -1.5321 -5.1056 0.0297
C -0.7622 -6.2012 0.0396
N -1.5209 -7.3226 0.0407
C -1.0661 -8.6929 -0.0143
C 0.3081 -8.9967 -0.1080
C 0.7356 -10.3201 -0.2360
C -0.1960 -11.3584 -0.2658
C -1.5571 -11.0769 -0.1531
C -1.9914 -9.7574 -0.0268
C -2.8055 -6.8907 0.0544
C -2.8059 -5.5182 0.0395
H -2.1711 -0.0230 -0.1399
H -2.9049 2.0416 -0.2944
H -3.6257 4.3651 -0.4830
H -1.9702 6.2073 -0.3985
H 0.4353 5.6970 -0.0963
H 1.1965 3.3956 0.0939
H 1.8297 1.3172 0.1438
H 1.8010 -1.3249 0.1656
H 0.3172 -6.1621 0.0291
H 1.0601 -8.2218 -0.1029
H 1.7917 -10.5380 -0.3241
H 0.1359 -12.3812 -0.3790
H -2.2820 -11.8799 -0.1753
H -3.0542 -9.5846 0.0449
H -3.6922 -7.5066 0.0585
H -3.6677 -4.8643 0.0373
