36

P          1.04940       -0.03250       -0.08070
F         -0.62230       -0.06750       -0.00230
F          1.04840        1.48930        0.61700
F          0.96020       -0.23870       -1.73790
Ag         3.50940       -0.03250       -0.08070
Br         3.53490        0.89650       -2.39640
C          3.32460       -0.79800        1.83620
C          3.77050       -0.14080        2.90160
P          5.96940       -0.03250       -0.08070
O          7.19170       -0.74400       -1.05590
C          8.50400       -0.60320       -0.61300
C          9.30310       -1.74340       -1.25920
O          6.16470        1.21250       -1.22790
C          6.35980        2.45100       -0.59010
C          7.34520        3.27520       -1.40300
O          6.45400       -0.67190        1.43290
C          6.21100       -2.06670        1.42900
C          6.36050       -2.61050        2.84620
H          2.82690       -1.75260        1.96540
H          4.26400        0.81500        2.78750
H          3.64250       -0.57280        3.88840
H          8.62420       -0.69530        0.48540
H          8.90250        0.36570       -0.97360
H          8.92950       -2.72750       -0.89940
H         10.37760       -1.65610       -1.01480
H          9.18330       -1.71610       -2.36470
H          6.77580        2.36360        0.44770
H          5.38380        2.97770       -0.55230
H          8.34680        2.79350       -1.40240
H          7.44080        4.29140       -0.96570
H          6.99640        3.36800       -2.45310
H          6.93660       -2.60010        0.78010
H          5.18400       -2.31660        1.08720
H          7.40010       -2.45590        3.20350
H          6.13170       -3.69760        2.86240
H          5.66370       -2.09700        3.53970
