120

P          1.08540        0.02990       -0.04250
C          0.15320       -1.35900        0.70720
C         -1.24310       -1.61240        0.63530
C         -1.78550       -2.70530        1.35730
C         -0.93960       -3.53500        2.14700
O         -1.35210       -4.60320        2.87020
C         -2.64620       -4.95060        3.15620
C          0.40180       -3.26160        2.20730
C          0.92490       -2.18890        1.49780
C          0.43140        1.04040        1.47220
C         -0.11770        0.54250        2.70790
C         -0.51380        1.39040        3.75960
C         -0.34360        2.76770        3.67070
O         -0.61350        3.54740        4.75250
C          0.11610        4.66810        5.11610
C          0.07950        3.29530        2.45560
C          0.38410        2.44930        1.38530
C          0.39120        0.11510       -1.72440
C          0.04170        1.36880       -2.26010
C         -0.38010        1.49570       -3.58220
C         -0.48700        0.36260       -4.40700
O         -0.84840        0.44760       -5.71500
C         -1.08180        1.62010       -6.41100
C         -0.19480       -0.89690       -3.86220
C          0.24350       -1.02310       -2.53410
Ag         3.54540        0.02990       -0.04250
Br         3.54540       -0.32780        2.52270
C          3.54540        0.32680       -2.17190
C          4.62050        0.45790       -2.95750
C          5.69540        0.02990       -0.04250
N          6.54500       -1.01960       -0.02420
C          6.50380       -2.55270        0.15090
C          5.31270       -3.43870        0.19420
C          3.86400       -3.02570       -0.00440
C          3.61360       -2.56770       -1.41300
C          2.79970       -4.14770        0.25740
C          5.46430       -4.84140        0.44700
C          6.64850       -5.46420        0.61360
C          7.77290       -4.74090        0.57050
C          7.76490       -3.35040        0.37490
C          9.19440       -2.87410        0.54390
C          9.85940       -2.58160       -0.83310
C          9.25000       -2.05110        1.85850
C          7.81340       -0.41580       -0.42920
C          7.66910        1.03600       -0.62950
N          6.39170        1.33280       -0.19680
C          6.21780        2.65580        0.48820
C          5.08670        3.46880        0.15470
C          4.08200        2.97760       -0.80830
C          2.70520        3.24510       -0.35410
C          4.24460        3.44020       -2.25460
C          4.88330        4.74110        0.71070
C          5.74300        5.27530        1.61400
C          6.88410        4.58190        1.95050
C          7.20460        3.30910        1.41250
C          8.60180        2.84430        1.97690
C          8.52440        1.54020        2.77220
C          9.85400        3.00490        1.04050
H         -1.89050       -0.97170        0.05280
H         -2.84150       -2.90860        1.30380
H         -2.61310       -5.88920        3.76780
H         -3.19800       -5.15680        2.22140
H         -3.10870       -4.15620        3.75240
H          1.07150       -3.85620        2.79680
H          1.94260       -2.03650        1.62090
H         -0.26600       -0.49530        2.93140
H         -0.91730        0.96700        4.67090
H         -0.35060        5.14490        6.00190
H          0.17570        5.41940        4.30470
H          1.14780        4.35860        5.40480
H          0.16240        4.36590        2.31390
H          0.57710        2.95260        0.48490
H          0.11270        2.27020       -1.67610
H         -0.60330        2.48580       -3.96100
H         -1.30250        1.38280       -7.47170
H         -0.18050        2.27150       -6.38380
H         -1.94940        2.16060       -5.97690
H         -0.28360       -1.78230       -4.47970
H          0.48080       -2.00490       -2.15250
H          2.60960        0.38020       -2.69090
H          5.62970        0.43990       -2.58220
H          4.47750        0.61290       -4.02390
H          3.73190       -2.19710        0.68220
H          3.64150       -3.41080       -2.13040
H          4.39520       -1.85840       -1.68700
H          2.60350       -2.11040       -1.44220
H          2.92840       -5.00990       -0.43000
H          1.77020       -3.85450        0.01200
H          2.85250       -4.49840        1.31520
H          4.67450       -5.56050        0.52810
H          6.69480       -6.53220        0.79420
H          8.68030       -5.31330        0.72930
H          9.93430       -3.65020        0.85000
H          9.22600       -2.25740       -1.66200
H         10.12020       -3.56110       -1.29420
H         10.79390       -1.99370       -0.75530
H          8.32980       -1.46190        2.05330
H         10.16170       -1.42880        1.93350
H          9.21990       -2.75370        2.72220
H          8.06680       -0.73540       -1.43140
H          8.63210       -0.49850        0.26540
H          7.84040        1.41790       -1.65790
H          8.33570        1.48160        0.02110
H          4.16880        1.92940       -0.70100
H          2.36630        4.28710       -0.53350
H          2.68080        3.00990        0.73200
H          2.06750        2.56860       -0.93820
H          4.10870        4.53570       -2.33330
H          3.45820        2.96040       -2.88380
H          5.23760        3.14270       -2.64230
H          4.00490        5.33630        0.46680
H          5.54250        6.24660        2.04760
H          7.52940        5.10280        2.64510
H          8.92920        3.55980        2.76500
H          8.07970        0.72180        2.19260
H          7.88910        1.69920        3.67210
H          9.53520        1.24570        3.13160
H         10.03370        2.38170        0.14610
H         10.77240        2.81440        1.63380
H          9.89430        4.04740        0.66450
