69

P          0.98740        0.07970        0.05910
C         -0.08800        0.94850       -1.16270
C         -1.17350        0.35000       -1.83610
C         -1.76510        0.98640       -2.93820
C         -1.27410        2.20840       -3.40290
F         -1.80320        2.78480       -4.51110
C         -0.22850        2.82840       -2.73000
C          0.33430        2.21580       -1.60880
C          0.55830       -1.59400       -0.44540
C          0.92540       -2.05320       -1.72140
C          0.40680       -3.25870       -2.20810
C         -0.47720       -4.00860       -1.42550
F         -1.01790       -5.15140       -1.91660
C         -0.82490       -3.56510       -0.14630
C         -0.30530       -2.36410        0.34580
C          0.33430        0.77020        1.58560
C         -1.05230        0.69060        1.81970
C         -1.61180        1.25580        2.97040
C         -0.78950        1.89950        3.89330
F         -1.34620        2.46360        5.00870
C          0.58650        1.98330        3.67580
C          1.15330        1.40450        2.52020
Ag         3.44740        0.07970        0.05910
Br         3.44740       -1.54000        2.08020
C          3.44740        1.42420       -1.61870
C          3.62240        1.13100       -2.90770
P          5.90740        0.07970        0.05910
O          7.38360       -0.31600        0.81900
C          7.05130       -0.75190        2.13730
C          8.08800       -0.32170        3.16790
O          5.83700       -1.57090       -0.37330
C          5.60830       -1.61200       -1.77320
C          6.11530       -2.91160       -2.37970
C          6.71780        1.38050       -1.06900
C          6.05870        2.54710       -1.53740
C          6.59700        3.39670       -2.50550
C          7.88670        3.19770       -2.96140
C          8.64250        2.16140       -2.41780
C          8.06610        1.25270       -1.49690
H         -1.55140       -0.61890       -1.55110
H         -2.58000        0.50930       -3.46020
H          0.16730        3.77110       -3.09410
H          1.13400        2.72390       -1.12460
H          1.56130       -1.45230       -2.35990
H          0.65960       -3.59390       -3.20570
H         -1.52580       -4.13330        0.45180
H         -0.62650       -2.01190        1.31510
H         -1.70700        0.19840        1.10660
H         -2.67950        1.18570        3.13140
H          1.22100        2.50040        4.38490
H          2.21660        1.50750        2.34500
H          3.07430        2.40980       -1.42180
H          3.83340        0.13880       -3.26890
H          3.46140        1.92940       -3.63310
H          6.98570       -1.86050        2.13610
H          6.08990       -0.34240        2.53640
H          9.10030       -0.66790        2.88240
H          7.82300       -0.77500        4.15100
H          8.08400        0.78240        3.29200
H          6.14820       -0.81830       -2.34320
H          4.51860       -1.53750       -1.95820
H          7.21860       -2.98290       -2.27270
H          5.87210       -2.92590       -3.46740
H          5.63170       -3.78080       -1.89340
H          5.11880        2.85940       -1.19280
H          6.01070        4.22180       -2.89900
H          8.29980        3.86790       -3.70870
H          9.67350        2.05750       -2.73540
H          8.69520        0.45490       -1.13510
