70

P          0.92570       -0.02630        0.06160
C          0.14120        0.09440       -1.57210
C         -1.23820        0.00940       -1.81820
C         -1.71200        0.02460       -3.14900
C         -3.17070       -0.09040       -3.45770
C         -0.80680        0.12640       -4.21740
C          0.55710        0.23540       -3.97100
C          1.02430        0.22700       -2.66030
C          0.48300       -1.78850        0.26230
C          0.14030       -2.67130       -0.78720
C         -0.29400       -3.97580       -0.51470
C         -0.68540       -4.89250       -1.63400
C         -0.38650       -4.41540        0.81120
C         -0.05180       -3.55620        1.85680
C          0.37670       -2.25570        1.58390
C          0.24810        1.33600        1.06840
C          0.54960        1.37550        2.44920
C          0.11060        2.43980        3.25620
C          0.50570        2.53320        4.70430
C         -0.68370        3.44350        2.69220
C         -1.02060        3.39490        1.33760
C         -0.55180        2.35510        0.52540
Ag         3.38570       -0.02630        0.06160
Br         3.27790       -2.02600       -1.44300
C          3.34920        1.70390        1.30090
C          4.33830        2.02730        2.13100
N          5.48570       -0.02630        0.06160
C          6.19150        1.17290       -0.02830
C          5.55730        2.49760       -0.39170
C          7.59190        1.20720       -0.00910
C          8.32020        0.03350        0.05710
C          9.82120        0.05440        0.07470
C          7.63550       -1.17080        0.08380
C          6.22740       -1.20130        0.06670
C          5.62720       -2.55590        0.31840
H         -1.92570       -0.08950       -0.98940
H         -3.77880       -0.13210       -2.53140
H         -3.34530       -1.01640       -4.04500
H         -3.49380        0.78560       -4.06050
H         -1.15660        0.12320       -5.24340
H          1.25570        0.31300       -4.79630
H          2.09210        0.30090       -2.49960
H          0.19360       -2.36400       -1.81910
H         -0.57940       -4.39660       -2.62250
H         -1.74850       -5.18780       -1.50880
H         -0.04610       -5.79910       -1.62190
H         -0.72950       -5.41800        1.03490
H         -0.14220       -3.89290        2.88200
H          0.59900       -1.60490        2.41870
H          1.17470        0.60650        2.88440
H          1.15530        1.68620        5.01130
H         -0.39740        2.54290        5.34870
H          1.07410        3.47490        4.87200
H         -1.03340        4.26880        3.30170
H         -1.63480        4.17830        0.91330
H         -0.81280        2.36520       -0.52130
H          2.48040        2.31760        1.39500
H          5.22900        1.40800        2.23240
H          4.25050        2.87540        2.80250
H          4.49470        2.40360       -0.67360
H          6.03220        2.87960       -1.31920
H          5.72780        3.26380        0.39450
H          8.11380        2.15430       -0.09450
H         10.21740        1.09200        0.03450
H         10.21100       -0.50190       -0.80320
H         10.19250       -0.42470        1.00490
H          8.20510       -2.09130        0.15090
H          6.29120       -3.15360        0.98150
H          5.55430       -3.14350       -0.61810
H          4.67920       -2.46660        0.88950
