78

P          0.94050       -0.06930       -0.04070
C          0.22370       -1.66460       -0.58440
C         -1.15340       -1.96370       -0.65280
C         -1.57740       -3.25050       -1.03750
C         -0.63690       -4.23710       -1.36510
Cl        -1.15940       -5.85330       -1.81120
C          0.72080       -3.93600       -1.33730
C          1.14220       -2.66000       -0.96450
C          0.43080       -0.34010        1.72090
C         -0.24870       -1.48000        2.23920
C         -0.79910       -1.47080        3.52480
C         -0.67730       -0.34550        4.33530
Cl        -1.41530       -0.32760        5.92840
C          0.01250        0.77150        3.86550
C          0.55830        0.77370        2.57420
C         -0.22960        0.96910       -0.98010
C         -1.07470        1.86670       -0.29460
C         -2.07820        2.56940       -0.96510
C         -2.24990        2.39450       -2.34490
Cl        -3.56030        3.24110       -3.16560
C         -1.40530        1.53530       -3.05410
C         -0.39840        0.81840       -2.36780
Ag         3.40050       -0.06930       -0.04070
Br         3.40050       -2.17210        1.47150
C          3.40050        1.67620       -1.29590
C          4.06870        1.89340       -2.40510
C          5.55050       -0.06930       -0.04070
N          6.42460       -1.18930       -0.04450
C          6.28390       -2.67210       -0.26680
C          6.06680       -3.54560        0.97250
C          5.43740       -3.03750       -1.48340
C          7.68670       -0.65680       -0.04930
C          7.61820        0.69590       -0.03550
C          8.77570        1.49750       -0.01000
C         10.03170        0.86980       -0.02790
C         10.11810       -0.52790       -0.05280
C          8.95220       -1.30550       -0.06140
N          6.32600        1.07900       -0.02980
C          5.95370        2.47850        0.25270
C          6.06840        3.39780       -0.93880
C          6.54630        2.92690       -2.18320
C          6.41410        3.72310       -3.30950
C          5.86910        5.00320       -3.21010
C          5.46370        5.50330       -1.96150
C          5.52820        4.69240       -0.82340
H         -1.89020       -1.22170       -0.38710
H         -2.62860       -3.48550       -1.07110
H          1.45870       -4.69230       -1.59440
H          2.19920       -2.45820       -0.95440
H         -0.42520       -2.37970        1.68000
H         -1.35030       -2.33420        3.87970
H          0.09510        1.65270        4.48850
H          1.03800        1.67720        2.22180
H         -0.98130        2.01030        0.76830
H         -2.71700        3.24730       -0.42020
H         -1.56570        1.38550       -4.10770
H          0.20470        0.12140       -2.93030
H          2.52080        2.30640       -1.20080
H          4.79550        1.20080       -2.79710
H          3.77160        2.76480       -2.99680
H          7.26300       -3.07120       -0.58150
H          5.04020       -3.86070        1.07250
H          6.51750       -3.08950        1.88020
H          6.46250       -4.57130        0.83250
H          4.42050       -2.62620       -1.38970
H          5.38250       -4.14470       -1.58770
H          5.90870       -2.63970       -2.41040
H          8.72180        2.57530        0.00510
H         10.94060        1.45880       -0.02300
H         11.09020       -1.01000       -0.05910
H          9.09850       -2.37410       -0.06050
H          6.59790        2.87740        1.07860
H          4.92530        2.49530        0.67540
H          6.91740        1.92620       -2.29040
H          6.70320        3.31510       -4.26410
H          5.75020        5.59950       -4.10320
H          5.04870        6.49380       -1.89170
H          5.16680        5.07200        0.13280
