117

P          0.92680        0.06780        0.00580
C         -0.00650       -1.57000        0.68570
C         -1.54780       -1.62460        0.91570
C          0.25170       -2.84390       -0.18110
C          0.63580       -1.97930        2.01360
C          0.21600        1.48620        1.45470
C          0.71650        1.34200        2.92590
C          0.46110        3.02780        1.17050
C         -1.33230        1.59070        1.74730
C          0.06070        0.24120       -1.65930
C         -1.45330        0.48610       -2.18760
C         -2.06380        1.82190       -1.73900
C         -1.37890        0.57250       -3.73040
C         -2.49590       -0.60160       -1.89090
Ag         3.38680        0.06780        0.00580
Br         3.38680       -0.24690        2.57660
C          3.38680        0.32910       -2.12830
C          2.68550        0.56330       -3.25580
C          5.53680        0.06780        0.00580
N          6.28370       -1.08030       -0.13980
C          5.98190       -2.61500       -0.19470
C          6.71250       -3.65540       -0.98980
C          7.96280       -3.56050       -1.85730
C          7.77800       -2.68220       -3.07450
C          9.24530       -3.43000       -1.00830
C          6.29850       -5.03360       -0.98070
C          5.29750       -5.52010       -0.20760
C          4.72170       -4.68710        0.66020
C          5.06310       -3.32430        0.73080
C          4.48960       -2.69120        1.89040
C          3.49920       -3.42110        2.88140
C          5.66640       -2.19070        2.79230
C          7.65230       -0.64690       -0.11380
C          7.64520        0.86930       -0.15390
N          6.37170        1.28970        0.35890
C          6.16080        2.74150        0.81380
C          5.09030        3.62490        0.34510
C          4.10140        3.32310       -0.67200
C          4.70790        2.72420       -1.89970
C          3.08810        2.56050        0.08610
C          4.83540        4.91320        0.86900
C          5.59740        5.43230        1.82790
C          6.71980        4.75570        2.22610
C          7.09120        3.45180        1.74030
C          8.49650        2.95140        2.21160
C          9.25680        3.98890        3.09950
C          8.42820        1.65310        3.00240
H         -2.07770       -2.12230        0.09110
H         -2.08910       -0.72650        1.11610
H         -1.82030       -2.32820        1.73650
H         -0.16500       -2.75700       -1.20080
H         -0.28370       -3.71990        0.27890
H          1.31460       -3.15250       -0.22400
H          0.52700       -1.33050        2.85900
H          1.69010       -2.08320        1.79340
H          0.25870       -2.95350        2.40160
H          1.77690        1.54430        3.03520
H          0.32260        0.49050        3.48030
H          0.32670        2.15250        3.58410
H          1.20810        3.47930        1.85450
H         -0.27030        3.72380        1.65000
H          0.41800        3.34800        0.11310
H         -1.82820        0.77830        2.26770
H         -1.90430        2.14890        1.01870
H         -1.54800        2.32030        2.56600
H          0.44320       -0.62640       -2.23700
H          0.49720        1.21620       -1.92430
H         -1.35410        2.67080       -1.82360
H         -2.45210        1.69850       -0.74730
H         -2.98970        2.06850       -2.30070
H         -0.72100        1.40260       -4.05740
H         -2.38950        0.77240       -4.15840
H         -1.02550       -0.38270       -4.16850
H         -2.87730       -0.50010       -0.86790
H         -2.12430       -1.61830       -2.13140
H         -3.43400       -0.43760       -2.46970
H          4.39780        0.06850       -2.43690
H          1.66600        0.77580       -3.43260
H          3.22470        0.53020       -4.19960
H          8.17920       -4.54720       -2.33560
H          7.53920       -1.63920       -2.83340
H          6.93030       -3.09740       -3.66650
H          8.69300       -2.74710       -3.69760
H          9.39860       -2.50810       -0.44450
H         10.13100       -3.57460       -1.66020
H          9.25460       -4.24110       -0.24130
H          6.77090       -5.81770       -1.55830
H          5.01990       -6.57090       -0.20620
H          4.01910       -5.17980        1.31660
H          3.90650       -2.04980        1.22980
H          4.00940       -4.17250        3.51460
H          2.64230       -3.91420        2.37380
H          3.04290       -2.70300        3.60070
H          6.17760       -3.05960        3.25350
H          5.35020       -1.55430        3.64220
H          6.41790       -1.60660        2.24670
H          8.23150       -0.95080       -0.98560
H          8.09830       -1.01290        0.83800
H          7.67740        1.20760       -1.22370
H          8.56130        1.23590        0.31720
H          3.53110        4.21620       -1.03570
H          5.75200        2.84120       -2.23600
H          4.97260        1.79690       -1.51080
H          3.95320        2.72250       -2.71950
H          3.49050        1.82930        0.79430
H          2.26280        2.25100       -0.56700
H          2.79010        3.29350        0.81120
H          3.96230        5.51160        0.58240
H          5.37060        6.41480        2.24950
H          7.28420        5.33690        2.93860
H          9.09630        2.89040        1.32760
H          8.72930        4.17910        4.06300
H          9.39060        4.95320        2.55430
H         10.27280        3.62540        3.33980
H          7.90480        1.78120        3.97080
H          9.47810        1.33650        3.19490
H          7.93320        0.84180        2.44760
