77

P          1.04430       -0.06670       -0.05990
C          0.16830        0.17800        1.58420
C          0.03840       -0.79770        2.66480
C          0.42830       -2.27140        2.66590
C         -0.49450       -0.39460        3.90390
C         -0.92830        0.90300        4.12350
C         -0.85410        1.83300        3.10580
C         -0.30800        1.48080        1.86280
C          0.67420        1.47500       -1.06120
C         -0.63020        1.91760       -1.47970
C         -1.88460        1.14010       -1.31100
C         -0.79410        3.16300       -2.11350
C          0.28690        3.98090       -2.40430
C          1.56000        3.55410       -2.05190
C          1.73950        2.33730       -1.36880
C          0.48760       -1.77670       -0.52650
C         -0.82860       -2.34630       -0.27710
C         -2.02110       -1.70630        0.41300
C         -1.08600       -3.67840       -0.65190
C         -0.11470       -4.46230       -1.25170
C          1.14840       -3.93840       -1.48200
C          1.44820       -2.62380       -1.11370
Ag         3.50430       -0.06670       -0.05990
Br         3.27540       -0.08280       -2.55480
C          3.87430        0.05950        1.99500
C          3.15040       -0.48770        2.92160
C          5.65430       -0.06670       -0.05990
N          6.46960        0.73500       -0.83140
C          6.27440        2.01690       -1.57260
C          5.75280        1.95530       -2.99430
C          5.56230        3.04880       -0.67730
C          7.74050        0.40360       -0.50480
C          7.72650       -0.54540        0.46160
N          6.44960       -0.82220        0.78290
C          6.12860       -1.83830        1.81050
C          6.69520       -3.22170        1.45190
C          6.70260       -1.39460        3.16840
H          0.92370       -2.61770        1.74950
H         -0.46690       -2.89340        2.85610
H          1.12580       -2.48910        3.51070
H         -0.56050       -1.09480        4.73160
H         -1.32070        1.18200        5.09410
H         -1.19770        2.84280        3.28140
H         -0.24730        2.27550        1.14070
H         -1.62660        0.10320       -1.15720
H         -2.44920        1.12670       -2.26810
H         -2.53300        1.58450       -0.52280
H         -1.78200        3.50530       -2.41050
H          0.14960        4.91570       -2.90200
H          2.41770        4.17420       -2.27070
H          2.72390        2.05570       -1.06920
H         -1.90430       -0.67840        0.76640
H         -2.29790       -2.30090        1.30900
H         -2.89100       -1.70610       -0.27790
H         -2.05730       -4.12470       -0.46120
H         -0.34370       -5.48540       -1.52340
H          1.90390       -4.56180       -1.94150
H          2.44990       -2.28180       -1.29300
H          4.77170        0.56930        2.32300
H          2.45610       -1.14530        2.51780
H          3.40820       -0.43250        3.97910
H          7.28550        2.46420       -1.72700
H          4.66820        1.90260       -3.03740
H          6.26680        1.15090       -3.55840
H          5.96780        2.92390       -3.49470
H          4.55440        2.72300       -0.39570
H          5.49750        4.03790       -1.17840
H          6.12140        3.18090        0.27430
H          8.63670        0.87770       -0.88880
H          8.60380       -0.97260        0.92610
H          5.04370       -1.98750        1.87850
H          7.80200       -3.19910        1.37530
H          6.27360       -3.58090        0.49290
H          6.42650       -3.95040        2.24910
H          7.81370       -1.43900        3.15710
H          6.33440       -2.05280        3.98210
H          6.41970       -0.34840        3.40180
