65

P          1.04290        0.05780        0.06950
C          0.23450       -0.53510       -1.53020
C         -1.15110       -0.55410       -1.94310
C         -2.30320       -0.00760       -1.15590
C         -1.50180       -1.08590       -3.21170
C         -0.54410       -1.56190       -4.09360
C          0.79240       -1.47790       -3.75150
C          1.16920       -0.96580       -2.50530
C          0.54940       -1.39180        1.23480
C          0.85980       -1.48480        2.66540
C          1.65080       -0.51050        3.49590
C          0.37990       -2.56870        3.44910
C         -0.41660       -3.55520        2.90530
C         -0.76630       -3.47570        1.57010
C         -0.29660       -2.42940        0.75690
C          0.26900        1.72260        0.19570
C          0.45020        2.79090       -0.73790
C          1.48810        2.80310       -1.82470
C         -0.37120        3.93290       -0.65460
C         -1.33190        4.05590        0.34470
C         -1.46380        3.05670        1.30310
C         -0.67390        1.90230        1.23150
Ag         3.50290        0.05780        0.06950
Br         3.53900       -2.37840       -0.55120
C          3.52620        2.09190        0.64280
C          4.26710        2.47320        1.69710
N          5.60290        0.05780        0.06950
C          6.31560        1.23750        0.04860
C          7.71740        1.28640       -0.05740
O          8.40290        2.45740       -0.15240
C          7.84280        3.72110       -0.16020
C          8.42260        0.09470       -0.11540
C          7.73300       -1.10440       -0.09460
C          6.33940       -1.10420       -0.01880
H         -2.06710        0.97760       -0.73230
H         -2.68180       -0.74980       -0.43060
H         -3.14660        0.23130       -1.84800
H         -2.53640       -1.13680       -3.53530
H         -0.84050       -1.97190       -5.05460
H          1.54060       -1.81380       -4.46050
H          2.22470       -0.90760       -2.31410
H          2.09220        0.30680        2.90920
H          2.45370       -1.05580        4.05050
H          0.97980       -0.08700        4.28420
H          0.61370       -2.65520        4.51100
H         -0.77570       -4.37200        3.52900
H         -1.42090       -4.23590        1.16520
H         -0.64710       -2.45250       -0.25090
H          2.15530        1.92210       -1.78440
H          2.12190        3.70950       -1.66740
H          1.02590        2.88530       -2.82620
H         -0.27230        4.73590       -1.37690
H         -1.96870        4.93330        0.37850
H         -2.20430        3.16790        2.08600
H         -0.83800        1.12700        1.96770
H          2.79100        2.81110        0.37150
H          4.86810        1.75500        2.24810
H          4.16030        3.48000        2.10760
H          5.83620        2.17990        0.00700
H          8.63740        4.47490       -0.32750
H          7.34680        3.92610        0.81250
H          7.10490        3.81350       -0.98790
H          9.50130        0.09700       -0.20230
H          8.27320       -2.04100       -0.15260
H          5.91300       -2.07700       -0.00740
