90

P          0.96370       -0.09320        0.00030
C         -0.06260        1.23930       -0.74640
C         -1.07320        1.02950       -1.69860
C         -1.55000        2.10310       -2.47730
C         -0.99870        3.39480       -2.33820
O         -1.29890        4.42680       -3.17400
C         -2.01240        4.34100       -4.35650
C         -0.05250        3.61700       -1.33720
C          0.38990        2.56160       -0.53820
C          0.86720       -1.43640       -1.19240
C          1.33300       -1.23680       -2.49260
C          1.29830       -2.27840       -3.42590
C          0.80020       -3.54390       -3.06110
O          0.77650       -4.59380       -3.92410
C          1.20530       -4.55990       -5.23620
C          0.31890       -3.73590       -1.75900
C          0.34650       -2.68860       -0.83070
C          0.09920       -0.40160        1.56150
C         -1.28660       -0.63920        1.53490
C         -2.00530       -0.84650        2.71350
C         -1.34690       -0.82350        3.95940
O         -1.99830       -1.05010        5.13350
C         -3.34010       -1.35420        5.27530
C          0.03540       -0.56740        3.99060
C          0.75500       -0.36040        2.80430
Ag         3.42370       -0.09320        0.00030
Br         3.42370       -2.39530        1.18710
C          3.42370        1.81780       -0.98490
C          4.39120        2.71490       -1.13060
C          5.57370       -0.09320        0.00030
N          6.32680        0.47170        0.97440
C          5.77730        1.14140        2.17610
C          6.19070        0.41910        3.46660
C          6.19580        2.61920        2.22390
C          7.61130        0.25470        0.61650
C          7.63230       -0.40860       -0.57940
C          8.82710       -0.74860       -1.22280
C         10.03490       -0.41050       -0.59420
C         10.02830        0.26170        0.64360
C          8.81070        0.60760        1.26360
N          6.36810       -0.63170       -0.99020
C          5.99490       -1.24800       -2.28240
C          5.79910       -0.21660       -3.38960
C          5.98540        1.15130       -3.14800
C          5.65120        2.11100       -4.10300
C          5.17480        1.71470       -5.34830
C          5.07180        0.35180       -5.65020
C          5.38450       -0.61180       -4.67780
H         -1.44950        0.03860       -1.88860
H         -2.30130        1.91480       -3.23140
H         -1.99250        5.32340       -4.87920
H         -3.06700        4.06690       -4.15490
H         -1.54490        3.59430       -5.03750
H          0.39410        4.60390       -1.22690
H          1.18150        2.77200        0.16890
H          1.73190       -0.27530       -2.79200
H          1.66740       -2.08710       -4.42430
H          1.14450       -5.58130       -5.67010
H          2.26580       -4.22790       -5.29040
H          0.56320       -3.87950       -5.83280
H         -0.07070       -4.70280       -1.46350
H         -0.01970       -2.86720        0.17190
H         -1.81880       -0.65920        0.59320
H         -3.07070       -1.03490        2.64300
H         -3.56610       -1.53480        6.34730
H         -3.58870       -2.27910        4.71060
H         -3.97310       -0.51260        4.91980
H          0.55140       -0.53790        4.94360
H          1.81760       -0.15560        2.85430
H          2.50950        2.07470       -1.46770
H          5.37070        2.59490       -0.71130
H          4.17680        3.61550       -1.70520
H          4.66700        1.11370        2.12810
H          7.28820        0.41490        3.61020
H          5.83240       -0.63140        3.44510
H          5.73830        0.92820        4.34590
H          7.29240        2.74200        2.29700
H          5.72850        3.12050        3.09650
H          5.85180        3.15050        1.32060
H          8.84700       -1.26430       -2.17280
H         10.97760       -0.67080       -1.06330
H         10.96940        0.51600        1.11570
H          8.84020        1.12750        2.20610
H          5.04990       -1.81230       -2.15390
H          6.76330       -1.98760       -2.59580
H          6.36510        1.48580       -2.20560
H          5.74820        3.16210       -3.86260
H          4.89480        2.46470       -6.07720
H          4.73320        0.05350       -6.63250
H          5.27750       -1.65970       -4.92700
