52

P          1.07000       -0.06070        0.03770
Cl        -0.69150        0.74160        0.78330
Cl         0.97250        1.20160       -1.61270
Cl         0.06290       -1.87370       -0.14910
Ag         3.53000       -0.06070        0.03770
Br         2.84450        2.17150        0.95260
C          3.04710       -1.96600        0.83110
C          2.69190       -3.05120        0.12250
C          5.68000       -0.06070        0.03770
N          6.48410        1.04340        0.04520
C          6.02670        2.43480       -0.08270
C          6.52670        3.16520       -1.35520
C          5.75170        4.49890       -1.49180
C          5.95980        5.38150       -0.25310
C          5.58580        4.63260        1.03580
C          6.33170        3.28870        1.15260
C          7.75730        0.59630        0.06680
C          7.73640       -0.78440       -0.03340
N          6.45320       -1.16720       -0.11040
C          5.89320       -2.41920       -0.62190
C          5.23440       -2.11650       -1.99480
C          5.58110       -3.10670       -3.07970
C          5.33970       -4.52330       -2.57130
C          6.38690       -4.82120       -1.47860
C          6.23230       -3.90530       -0.24530
H          3.11580       -2.06760        1.90730
H          2.58160       -3.03540       -0.95260
H          2.47830       -3.98490        0.63070
H          4.96410        2.37230       -0.25340
H          6.32560        2.55560       -2.26260
H          7.62090        3.36450       -1.30960
H          4.66530        4.27910       -1.59470
H          6.06230        5.05300       -2.40580
H          5.32790        6.29410       -0.33840
H          7.02150        5.69280       -0.20480
H          4.49330        4.43860        1.02270
H          5.80230        5.26790        1.91940
H          5.98140        2.76310        2.06370
H          7.42900        3.45680        1.23010
H          8.63920        1.22850        0.06800
H          8.60090       -1.42860       -0.16140
H          5.10500       -2.41800        0.07620
H          5.54600       -1.11480       -2.36830
H          4.14470       -2.03290       -1.88950
H          6.64610       -2.99760       -3.36940
H          4.95180       -2.87450       -3.96780
H          5.48030       -5.22480       -3.41890
H          4.29380       -4.63290       -2.19950
H          7.39490       -4.68730       -1.91910
H          6.29020       -5.88500       -1.16160
H          7.06790       -4.00640        0.47740
H          5.34970       -4.37880        0.26850
