87

P          0.94830       -0.06260       -0.05840
C          0.07350       -0.92080       -1.61230
C         -1.47810       -0.91460       -1.68350
C          0.55310       -0.23510       -2.92160
C          0.48580       -2.40550       -1.82960
C          0.44810       -1.16850        1.53820
C          0.93130       -2.63930        1.61480
C          0.96790       -0.63500        2.90930
C         -1.09230       -1.23910        1.69010
C         -0.02980        1.62570       -0.19250
C         -0.19560        2.89410        0.81390
C          1.10490        3.56800        1.04830
C         -1.09310        3.98560        0.19300
C         -0.78000        2.60880        2.22080
Ag         3.40830       -0.06260       -0.05840
Br         3.40830       -2.65240       -0.09200
C          3.40830        2.08720       -0.03050
C          3.68160        2.35990        1.24950
C          5.55830       -0.06260       -0.05840
N          6.43600        1.09820       -0.14630
C          6.57170        2.63810       -0.29070
C          6.98580        3.07560       -1.71400
C          5.76430        3.78250        0.32710
C          7.72140        0.56850       -0.14060
C          7.67610       -0.78670       -0.05860
C          8.88810       -1.53520       -0.02250
C         10.12870       -0.87690       -0.05270
C         10.18600        0.49660       -0.15030
C          8.98930        1.21740       -0.18430
N          6.39800       -1.20850       -0.02250
C          6.13970       -2.65510        0.29590
C          5.93280       -2.77220        1.80860
C          5.64750       -1.56540        2.47050
C          6.34750       -1.23120        3.58930
C          7.16680       -2.17250        4.20160
C          7.19920       -3.48740        3.71680
C          6.58810       -3.79850        2.50120
H         -1.91890        0.09220       -1.72500
H         -1.97570       -1.51150       -0.92190
H         -1.81310       -1.41330       -2.62180
H          0.28340        0.83210       -2.97840
H          0.07220       -0.71530       -3.81060
H          1.64810       -0.35310       -3.07130
H          0.03280       -3.09740       -1.11190
H          1.57590       -2.52680       -1.91480
H          0.10270       -2.79970       -2.79810
H          1.98240       -2.70210        1.93640
H          0.73960       -3.25310        0.74230
H          0.42510       -3.18850        2.44010
H          2.07290       -0.58900        2.96290
H          0.64050       -1.31780        3.73540
H          0.55310        0.28500        3.26190
H         -1.54060       -1.92180        0.96570
H         -1.56520       -0.23740        1.66720
H         -1.38980       -1.71370        2.65350
H         -1.08290        1.31990       -0.27350
H          0.27820        2.06070       -1.16250
H          1.57020        3.86210        0.08520
H          1.56190        2.79930        1.64920
H          1.08040        4.46500        1.69900
H         -0.70740        4.30590       -0.79720
H         -1.09130        4.89510        0.84610
H         -2.14200        3.64690        0.10420
H         -0.08400        2.04350        2.81680
H         -1.77070        2.12490        2.20960
H         -0.84160        3.54900        2.81760
H          3.15590        2.75460       -0.84540
H          3.87340        1.53420        1.92820
H          3.66080        3.36480        1.65670
H          7.39190        2.90460        0.40650
H          6.15750        2.90750       -2.42730
H          7.89210        2.56310       -2.09440
H          7.24250        4.16170       -1.72840
H          4.85750        4.00970       -0.25860
H          6.29490        4.75350        0.24100
H          5.69390        3.66760        1.42540
H          8.95670       -2.60770        0.05260
H         11.05790       -1.43710       -0.02610
H         11.13810        1.01820       -0.17080
H          9.16860        2.28050       -0.25690
H          7.05960       -3.24240        0.16140
H          5.67270       -3.25680       -0.50880
H          5.06250       -0.78250        2.03670
H          6.29940       -0.20230        3.92090
H          7.77940       -1.86310        5.02590
H          7.79880       -4.23000        4.21870
H          6.76390       -4.76810        2.04980
