87

P          0.93220       -0.07280        0.00970
C          0.27210       -1.82130       -0.07330
C         -1.08160       -2.26020       -0.05690
C         -2.24230       -1.33330       -0.10070
C         -1.37350       -3.64630        0.01520
C         -0.36140       -4.60230        0.05570
C          0.95880       -4.19630       -0.02710
C          1.25580       -2.83450       -0.11740
C          0.39670        0.29950        1.76580
C          0.47250        1.62860        2.31440
C          1.10400        2.82610        1.64330
C         -0.11370        1.92030        3.56440
C         -0.74670        0.93550        4.30470
C         -0.80040       -0.35850        3.81660
C         -0.24150       -0.67560        2.57690
C          0.33760        0.91880       -1.42900
C          0.74250        0.74230       -2.80500
C          1.76790       -0.22890       -3.27440
C          0.21380        1.60800       -3.79530
C         -0.67130        2.61630       -3.46750
C         -1.06520        2.79040       -2.14510
C         -0.56790        1.94830       -1.14440
Ag         3.39220       -0.07280        0.00970
Br         3.85370       -1.96640        1.59080
C          3.33350        1.71990       -1.09390
C          4.18560        2.71200       -0.88380
P          5.85220       -0.07280        0.00970
C          6.91980       -0.85600        1.27120
C          7.10280       -2.24820        1.39620
C          7.75060       -2.77950        2.51990
C          8.21410       -1.93990        3.53350
C          8.02870       -0.56400        3.43320
C          7.38100       -0.02590        2.31640
C          6.08490       -1.34630       -1.26870
C          5.00460       -1.93060       -1.93400
C          5.22150       -2.77200       -3.03400
C          6.52250       -3.04100       -3.47180
C          7.60980       -2.47670       -2.80650
C          7.39460       -1.63270       -1.71610
C          7.00330        1.30120       -0.51580
C          6.78280        1.99310       -1.86300
C          5.93030        1.51240       -2.88250
C          5.73140        2.24460       -4.05800
C          6.37590        3.46780       -4.24060
C          7.22560        3.95900       -3.24950
C          7.43080        3.22750       -2.07460
H         -1.92820       -0.28030       -0.17850
H         -2.85640       -1.47200        0.81170
H         -2.85070       -1.59140       -0.99500
H         -2.39780       -3.99220        0.05240
H         -0.59670       -5.66010        0.13410
H          1.75470       -4.93610       -0.01480
H          2.28180       -2.58260       -0.21100
H          1.63820        2.57230        0.71840
H          1.83320        3.29520        2.34250
H          0.32650        3.59010        1.41790
H         -0.08660        2.92760        3.97250
H         -1.20160        1.17860        5.25800
H         -1.29930       -1.12440        4.39550
H         -0.35580       -1.69780        2.28430
H          2.23640       -0.76260       -2.43790
H          2.58270        0.33170       -3.81060
H          1.33250       -0.94990       -3.99260
H          0.53090        1.50280       -4.83180
H         -1.04500        3.28020       -4.23920
H         -1.75590        3.59650       -1.89750
H         -0.89980        2.12260       -0.13170
H          2.53210        2.01580       -1.73090
H          4.92000        2.63690       -0.11040
H          4.08220        3.65780       -1.40690
H          6.70480       -2.93570        0.66610
H          7.86160       -3.85000        2.62150
H          8.68580       -2.35470        4.41450
H          8.35880        0.08980        4.23410
H          7.20670        1.04120        2.29940
H          4.00290       -1.70520       -1.62760
H          4.38060       -3.19800       -3.56370
H          6.68990       -3.67660       -4.33270
H          8.61930       -2.67210       -3.14980
H          8.25640       -1.17940       -1.24450
H          8.06010        0.97100       -0.48160
H          6.92270        2.07440        0.27720
H          5.38930        0.59380       -2.77990
H          5.06550        1.86840       -4.82240
H          6.21030        4.03960       -5.14810
H          7.71430        4.91650       -3.38820
H          8.07500        3.64400       -1.31210
