79

P          0.98530       -0.00740        0.09860
C          0.29330        1.55870       -0.73350
C         -1.09060        1.94000       -0.99290
C         -2.34150        1.17150       -0.63060
C         -1.38170        3.19070       -1.60390
C         -0.38240        4.07450       -1.99440
C         -0.68010        5.40990       -2.63230
C          0.93300        3.72880       -1.78380
C          1.29120        2.52320       -1.16500
C          2.78560        2.32950       -1.02620
C          0.84790       -1.34590       -1.31030
C          1.45780       -1.25590       -2.62840
C          1.89930       -0.01270       -3.34710
C          1.80540       -2.43460       -3.33800
C          1.51940       -3.70060       -2.84740
C          2.07660       -4.94750       -3.48560
C          0.70610       -3.79150       -1.74080
C          0.31320       -2.64370       -1.00360
C         -0.67450       -2.92290        0.08480
C          0.15730        0.00460        1.85130
C         -0.78200        0.99270        2.33170
C         -0.88530        2.43080        1.91680
C         -1.70740        0.67970        3.34670
C         -1.69930       -0.53250        4.00850
C         -2.78370       -0.87420        5.01270
C         -0.65000       -1.39540        3.75760
C          0.30190       -1.15800        2.72430
C          1.43240       -2.18920        2.65680
Ag         3.44530       -0.00740        0.09860
Br         3.13200        1.14910        2.32030
C          3.73890       -1.59660       -1.20960
C          3.90140       -2.81660       -0.70860
N          5.54530       -0.00740        0.09860
C          6.19640        0.59040        1.14900
C          7.59270        0.66450        1.21100
C          8.35560        0.16170        0.16770
C          7.71680       -0.42030       -0.91360
C          6.32460       -0.51100       -0.92740
H         -2.15300        0.24960       -0.05850
H         -2.92420        0.95000       -1.54940
H         -3.02120        1.82370       -0.03150
H         -2.41130        3.49320       -1.76870
H         -1.76900        5.59970       -2.72770
H         -0.22300        5.45060       -3.64480
H         -0.23690        6.22790       -2.02110
H          1.69650        4.43110       -2.10640
H          3.37690        3.16800       -1.45270
H          3.14320        1.42660       -1.54660
H          3.05730        2.29270        0.02490
H          1.49600        0.88100       -2.90470
H          1.46650       -0.02900       -4.37010
H          2.99920        0.05010       -3.47330
H          2.37890       -2.36800       -4.25780
H          2.77100       -4.72990       -4.32650
H          1.28160       -5.63780       -3.83370
H          2.69230       -5.50210       -2.72410
H          0.39890       -4.78890       -1.42090
H         -0.91540       -4.00220        0.18770
H         -1.61110       -2.37660       -0.16150
H         -0.38620       -2.61430        1.04970
H         -0.06570        2.77970        1.28350
H         -0.75550        3.03920        2.83750
H         -1.88670        2.69620        1.53900
H         -2.46800        1.40340        3.62870
H         -3.55450       -0.07370        5.06990
H         -2.36160       -1.03650        6.01820
H         -3.31340       -1.79910        4.68540
H         -0.60540       -2.30640        4.35460
H          1.31990       -2.95870        3.46590
H          2.39570       -1.69090        2.86320
H          1.54890       -2.75890        1.72360
H          3.93320       -1.45370       -2.25850
H          3.81020       -2.99660        0.35660
H          4.15080       -3.64600       -1.36440
H          5.66590        1.00310        1.97870
H          8.08010        1.12070        2.06280
H          9.43500        0.23210        0.18860
H          8.29380       -0.79120       -1.75190
H          5.93010       -0.93410       -1.82650
