80

P          0.92380       -0.05830       -0.02810
C          0.68630        1.11830       -1.40710
C         -0.03570        2.32710       -1.30960
C         -0.12870        3.19030       -2.40710
C          0.49370        2.86760       -3.61290
C          1.19310        1.66830       -3.73190
C          1.27670        0.79760       -2.64090
C          0.47410       -1.79740       -0.30030
C          0.99460       -2.84630        0.47420
C          0.60930       -4.16960        0.23890
C         -0.31530       -4.46040       -0.76500
C         -0.83910       -3.42910       -1.54720
C         -0.43430       -2.10700       -1.32930
C         -0.31200        0.51940        1.26570
C         -1.81950        0.42740        0.94660
C         -2.41560       -0.96500        1.21660
C         -2.15440       -1.41520        2.66180
C         -0.65900       -1.40580        2.98340
C         -0.05020       -0.02410        2.70270
Ag         3.38380       -0.05830       -0.02810
Br         3.26300        2.42090        0.08230
C          3.69050       -2.13040       -0.28350
C          3.31010       -2.78840       -1.38140
C          5.53380       -0.05830       -0.02810
N          6.27330       -0.43510        1.04630
C          5.84250       -0.79550        2.42550
C          4.31390       -0.64450        2.63520
C          6.28080       -2.22970        2.76500
C          6.50350        0.18340        3.42360
C          7.55850       -0.28330        0.65170
C          7.58330        0.20950       -0.63420
N          6.31290        0.37360       -1.06200
C          5.89760        0.75520       -2.44400
C          6.89780        0.21680       -3.49610
C          4.54740        0.12270       -2.78220
C          5.79550        2.27990       -2.58760
H         -0.52580        2.63870       -0.40590
H         -0.67860        4.11810       -2.31900
H          0.42990        3.54510       -4.45500
H          1.67300        1.41470       -4.66900
H          1.81190       -0.13230       -2.76170
H          1.70220       -2.64260        1.26660
H          1.02310       -4.96800        0.84150
H         -0.62670       -5.48350       -0.93440
H         -1.56490       -3.65440       -2.31840
H         -0.86130       -1.32040       -1.93790
H         -0.04490        1.58940        1.36270
H         -2.03290        0.76930       -0.08500
H         -2.34410        1.12310        1.64210
H         -1.99830       -1.71490        0.53490
H         -3.50980       -0.94000        1.03400
H         -2.55590       -2.44290        2.80950
H         -2.67740       -0.73050        3.35990
H         -0.17480       -2.18340        2.40710
H         -0.49850       -1.68120        4.04790
H          1.03860       -0.00960        2.93560
H         -0.54330        0.66820        3.41870
H          4.25090       -2.69390        0.44890
H          2.77210       -2.28940       -2.17680
H          3.53470       -3.84710       -1.48050
H          3.71550       -1.34590        2.04930
H          3.98330        0.38800        2.39120
H          4.04320       -0.84860        3.69280
H          5.80460       -2.96220        2.08520
H          5.99620       -2.48640        3.80770
H          7.38250       -2.33430        2.67150
H          6.20700        1.23050        3.19350
H          7.61100        0.12090        3.38520
H          6.19350       -0.04410        4.46660
H          8.43380       -0.48420        1.26580
H          8.47310        0.42510       -1.20390
H          6.99570       -0.88710       -3.41120
H          7.89830        0.67620       -3.37650
H          6.54800        0.45380       -4.52540
H          4.63010       -0.97800       -2.72620
H          4.20620        0.38660       -3.80710
H          3.79690        0.48560       -2.07010
H          6.77480        2.76070       -2.39710
H          5.06150        2.69630       -1.87930
H          5.45210        2.54940       -3.61130
