67

P          0.93450        0.05400       -0.05290
C          0.32620        0.65100       -1.79500
C          1.01600        2.01120       -2.16550
C          2.40530        1.86030       -2.79240
C          2.29030        1.20420       -4.17330
C          1.52560       -0.11470       -4.09510
C          0.28930       -0.13820       -3.18010
C          0.17700       -1.67020       -0.15720
C          0.27850       -2.42850        1.21120
C         -0.73580       -1.94190        2.29110
C         -2.17820       -1.96430        1.78780
C         -2.29490       -1.15440        0.49580
C         -1.33910       -1.73160       -0.56160
C          0.24690        1.43330        1.07370
C         -0.59340        2.61310        0.77380
C         -1.21680        3.16900       -0.50790
C         -1.00400        3.45580        1.83460
C         -0.68630        3.19030        3.14880
C          0.07660        2.08990        3.45520
C          0.54360        1.24690        2.43830
Ag         3.39450        0.05400       -0.05290
Br         3.39450       -1.66650       -1.98900
C          3.39450        1.48210        1.55420
C          3.49080        2.78700        1.30520
N          5.49450        0.05400       -0.05290
C          6.24260       -0.73160       -0.90490
C          7.64130       -0.76440       -0.86520
Cl         8.53160       -1.81450       -1.95670
C          8.32260        0.02440        0.05500
C          7.59840        0.83040        0.90340
C          6.19500        0.81980        0.83890
H         -0.74390        0.73340       -1.58280
H          1.13690        2.66650       -1.28210
H          0.40740        2.55850       -2.92700
H          3.06730        1.29540       -2.10550
H          2.86050        2.86220       -2.94200
H          3.31910        1.02000       -4.57320
H          1.77430        1.88050       -4.88510
H          2.18960       -0.77010       -3.71530
H          1.37050       -0.58550       -5.08220
H         -0.04440       -1.19670       -3.05130
H         -0.48530        0.35870       -3.79710
H          0.75840       -2.22360       -0.91930
H          1.31300       -2.38110        1.61090
H          0.03960       -3.49880        1.03090
H         -0.53910       -0.91880        2.59890
H         -0.65860       -2.56810        3.20660
H         -2.86140       -1.53960        2.56290
H         -2.49240       -3.01160        1.59900
H         -2.07540       -0.08060        0.67630
H         -3.34460       -1.22640        0.13220
H         -1.55790       -1.24650       -1.52230
H         -1.61980       -2.79840       -0.70920
H         -1.20200        2.65550       -1.45170
H         -0.78110        4.17430       -0.70910
H         -2.31120        3.29680       -0.36400
H         -1.62120        4.33290        1.65010
H         -1.05610        3.85540        3.92680
H          0.30450        1.88570        4.49330
H          1.13660        0.39870        2.75830
H          3.27070        1.13730        2.57400
H          3.59080        3.14070        0.28570
H          3.45900        3.49930        2.12390
H          5.81220       -1.38650       -1.62530
H          9.39970        0.00040        0.10080
H          8.11160        1.43870        1.63990
H          5.74300        1.46620        1.56930
