75

P          1.00760       -0.09940       -0.00820
O          0.54450       -0.73720        1.51660
C          0.20420        0.24700        2.46620
C         -0.53070       -0.45600        3.61470
O          0.60550        1.24880       -1.03660
C         -0.81260        1.47400       -1.11610
C         -1.13620        2.69110       -1.96750
C         -0.09830       -1.19870       -0.99190
C         -1.08860       -2.00230       -0.38900
C         -1.98980       -2.72750       -1.17300
C         -1.92390       -2.66300       -2.56600
C         -0.92600       -1.90720       -3.18140
C         -0.00430       -1.19850       -2.40490
Ag         3.46760       -0.09940       -0.00820
Br         3.46760        0.75720       -2.45250
C          3.46760       -0.81050        2.02080
C          4.52330       -1.27720        2.69260
C          5.61760       -0.09940       -0.00820
N          6.42270       -1.21240        0.02450
C          5.96080       -2.60360       -0.11310
C          6.73640       -3.67250        0.68660
C          6.24270       -5.10010        0.42130
C          7.15980       -6.11670        1.11150
C          7.71380       -0.72140       -0.05160
C          7.65500        0.64900       -0.09820
C          8.81650        1.44750       -0.10210
C         10.06360        0.80850       -0.09140
C         10.13630       -0.57690       -0.08630
C          8.96960       -1.36150       -0.08970
N          6.36820        1.04970       -0.12350
C          5.93440        2.45680       -0.05120
C          5.64430        2.89790        1.37940
C          5.71870        2.00820        2.47120
C          5.39150        2.42560        3.76200
C          5.00630        3.74340        3.99360
C          4.97420        4.65540        2.93600
C          5.29120        4.23770        1.63470
H         -0.46160        1.03250        2.05470
H          1.11870        0.71350        2.88870
H         -1.49880       -0.87240        3.26060
H         -0.73490        0.24630        4.45050
H          0.07760       -1.29900        4.01700
H         -1.28920        1.55980       -0.11900
H         -1.34700        0.69430       -1.68800
H         -0.82010        3.62000       -1.46010
H         -2.23710        2.72960       -2.14520
H         -0.64240        2.60410       -2.96070
H         -1.20150       -2.06150        0.68230
H         -2.75810       -3.32300       -0.69870
H         -2.64980       -3.19490       -3.16750
H         -0.88150       -1.85170       -4.26210
H          0.74070       -0.59540       -2.90800
H          2.55710       -0.88930        2.57190
H          5.51300       -1.33340        2.28290
H          4.38670       -1.66310        3.69890
H          6.04700       -2.88540       -1.19020
H          4.87430       -2.65940        0.13490
H          6.71980       -3.44380        1.76920
H          7.76400       -3.71650        0.34150
H          6.26970       -5.31080       -0.67330
H          5.20330       -5.21660        0.78440
H          8.19950       -6.03140        0.72370
H          6.80480       -7.14930        0.91380
H          7.17530       -5.94170        2.20760
H          8.79090        2.52860       -0.10600
H         10.97210        1.39820       -0.07980
H         11.10350       -1.06810       -0.09010
H          9.14340       -2.41040       -0.09020
H          5.07320        2.63310       -0.71760
H          6.74680        3.11820       -0.42330
H          6.02080        0.98450        2.34410
H          5.43260        1.71730        4.57980
H          4.74130        4.05730        4.99530
H          4.69310        5.68350        3.12560
H          5.25990        4.96230        0.83030
