129

P          1.07040       -0.02200        0.06750
C          0.16040        0.42410       -1.64770
C          0.12540        1.87420       -2.28220
C          1.24330        2.23750       -3.25880
C          1.31100        1.26150       -4.42010
C          1.47380       -0.15740       -3.87220
C          0.31780       -0.50020       -2.92430
C          0.28050       -1.84060        0.48090
C         -1.26080       -1.71990        0.60610
C         -1.99050       -2.06360       -0.73770
C         -1.85460       -3.52120       -1.15570
C         -0.39690       -3.87390       -1.24530
C          0.32490       -3.38500        0.00200
C          0.07170        1.15540        1.40250
C         -0.98040        2.14700        1.07270
C         -1.86320        2.36260       -0.12550
C         -1.30720        3.19880        1.94330
C         -0.76180        3.36690        3.17030
C         -0.97010        4.71550        3.84680
C          0.00000        2.32630        3.68810
C          0.40680        1.18480        2.88450
C          1.45580        0.34140        3.65820
Ag         3.53040       -0.02200        0.06750
Br         3.53040        2.49380       -0.54800
C          3.53040       -2.11050        0.57840
C          4.49130       -2.34460        1.52770
C          5.68040       -0.02200        0.06750
N          6.48110       -1.10650       -0.13250
C          6.49290       -2.74420       -0.44700
C          5.39730       -3.96560       -0.54090
C          3.86660       -4.22560       -0.70490
C          2.87320       -4.05740       -1.90750
C          3.17210       -4.84630        0.73160
C          5.82730       -5.30170       -0.36050
C          7.07520       -5.69420       -0.29840
C          8.03140       -4.78070       -0.53560
C          7.79820       -3.37380       -0.61830
C          9.08100       -2.59470       -0.76800
C         10.41160       -3.31740       -0.61100
C          9.06510       -1.64610       -2.03730
C          7.73180       -0.45630        0.32170
C          7.50940        1.02550        0.11710
N          6.24680        1.33240        0.57920
C          6.06420        2.82140        1.19160
C          4.85180        3.78070        1.49140
C          3.32850        3.70070        1.76170
C          2.53330        2.51810        1.95830
C          2.37390        4.68980        0.79310
C          5.03990        5.16970        1.69950
C          6.20540        5.75500        1.88440
C          7.27460        4.95880        1.99190
C          7.28490        3.55990        1.72160
C          8.67110        3.03360        2.23850
C          8.61550        1.78060        3.14650
C          9.86720        3.17230        1.25680
H         -0.82330        0.19730       -1.35890
H          0.09400        2.68020       -1.54950
H         -0.80700        1.93450       -2.91170
H          2.19590        2.22550       -2.73530
H          1.06360        3.26020       -3.66420
H          2.16640        1.52700       -5.07930
H          0.38100        1.34000       -5.03300
H          2.42820       -0.26770       -3.32570
H          1.46490       -0.85210       -4.74460
H          0.37300       -1.55320       -2.68920
H         -0.60420       -0.38390       -3.55790
H          0.69610       -1.92840        1.51170
H         -1.53400       -0.73150        0.99510
H         -1.63820       -2.44110        1.37470
H         -1.55950       -1.57290       -1.58830
H         -3.05140       -1.77970       -0.68430
H         -2.29760       -3.68980       -2.16350
H         -2.35740       -4.17450       -0.41640
H          0.07220       -3.46020       -2.14040
H         -0.29520       -4.98240       -1.36120
H          1.23020       -3.82470       -0.16740
H         -0.09480       -4.00490        0.83860
H         -1.94570        1.61990       -0.85910
H         -1.66000        3.35850       -0.58200
H         -2.92440        2.36990        0.19910
H         -1.98750        3.98510        1.61650
H         -1.62060        5.39660        3.24170
H          0.00470        5.25930        3.89570
H         -1.41060        4.63150        4.85190
H          0.41680        2.50030        4.67960
H          1.36540        0.50530        4.76190
H          2.49990        0.69250        3.60850
H          1.44610       -0.73600        3.45460
H          2.66190       -2.58380        0.36080
H          5.19680       -1.58530        1.80390
H          4.68900       -3.19090        2.14670
H          4.14760       -3.24830       -1.11570
H          2.16190       -4.90750       -1.95890
H          3.32390       -3.90810       -2.91320
H          2.25260       -3.11520       -1.81700
H          2.83540       -5.89620        0.71370
H          2.35700       -4.33120        1.30100
H          3.71350       -4.80640        1.68070
H          5.11760       -6.12650       -0.26920
H          7.27500       -6.75510       -0.14710
H          8.98710       -5.26470       -0.58130
H          9.12420       -2.17550        0.23760
H         10.60290       -4.00000       -1.45240
H         10.38760       -3.88890        0.35540
H         11.21630       -2.57650       -0.51620
H          9.32350       -2.12970       -2.99260
H          9.77900       -0.80710       -1.90320
H          8.07080       -1.16300       -2.19460
H          8.60810       -0.38260       -0.16930
H          7.83230       -0.72980        1.39180
H          7.59220        1.35030       -0.95010
H          8.27770        1.46310        0.64830
H          3.51960        3.70220        2.86190
H          1.64800        3.01130        2.31130
H          3.05850        1.54200        1.90870
H          1.94210        2.28970        1.11150
H          1.65280        5.39730        1.23900
H          1.61330        4.11440        0.17940
H          2.91640        5.11580       -0.08880
H          4.20910        5.88260        1.81230
H          6.22120        6.82150        2.08960
H          8.14280        5.49140        2.34000
H          9.01780        3.72000        3.04770
H          8.25850        0.86200        2.68690
H          7.94590        1.96180        4.01660
H          9.63010        1.56460        3.54790
H          9.78970        2.69380        0.26370
H         10.77790        2.76070        1.73880
H         10.04500        4.24490        1.04120
