58

P          1.01120        0.07300        0.06740
C          0.83900        1.38800       -1.19970
C         -0.09340        2.44190       -1.14270
C         -0.09980        3.45740       -2.10230
C          0.79300        3.41680       -3.17250
C          1.68490        2.34790       -3.28630
C          1.71470        1.34200       -2.30390
C          0.58390       -1.66370       -0.27560
C         -0.05220       -1.99670       -1.48660
C         -0.44150       -3.31150       -1.74630
C         -0.20840       -4.32010       -0.80690
C          0.44840       -4.00920        0.38990
C          0.84400       -2.69760        0.64700
C         -0.32610        0.44050        1.41100
C         -0.32210       -0.56080        2.62120
C          0.92330       -0.40220        3.53090
C          0.88440        0.97270        4.20050
C          0.86520        2.05120        3.13270
C         -0.28380        1.85110        2.13100
Ag         3.47120        0.07300        0.06740
Br         3.47120        2.57330        0.74320
C          3.47120       -2.00250       -0.49360
C          3.84980       -3.05370        0.23970
N          5.57120        0.07300        0.06740
C          6.30050        1.20980        0.35530
C          7.69650        1.24500        0.29940
C          8.40020        0.10750       -0.04540
C          7.69810       -1.05040       -0.33300
C          6.30030       -1.04770       -0.27800
H         -0.83650        2.51620       -0.38520
H         -0.80130        4.27960       -2.01540
H          0.78020        4.20600       -3.91310
H          2.36140        2.30630       -4.12670
H          2.42250        0.53390       -2.40770
H         -0.25780       -1.22730       -2.21880
H         -0.93510       -3.56040       -2.67940
H         -0.51450       -5.33850       -1.00150
H          0.63470       -4.78760        1.11970
H          1.35730       -2.49280        1.57920
H         -1.30150        0.34360        0.89090
H         -0.46520       -1.60000        2.32000
H         -1.21430       -0.37860        3.26130
H          1.86420       -0.51980        2.94940
H          0.91930       -1.16730        4.33770
H          1.76630        1.12120        4.86390
H         -0.03030        1.05560        4.82890
H          1.82270        2.01990        2.61340
H          0.76710        3.04650        3.62210
H         -0.25270        2.73090        1.48920
H         -1.22590        1.94540        2.71920
H          3.12850       -2.19040       -1.50650
H          4.22310       -2.94830        1.24840
H          3.79440       -4.04300       -0.21270
H          5.87390        2.14130        0.61810
H          8.22760        2.16420        0.51580
H          9.48080        0.12520       -0.09890
H          8.23390       -1.94750       -0.61280
H          5.86440       -1.97540       -0.55160
