59

P          0.99050        0.09600       -0.02630
C          0.50430        0.53450       -1.78890
C         -0.37470        1.60320       -2.09000
C         -0.73950        1.91080       -3.41850
C         -0.23480        1.17430       -4.48090
C          0.61900        0.11910       -4.22440
C          0.95720       -0.18750       -2.91310
C          0.58070       -1.62850        0.42080
C          0.51300       -2.65400       -0.54390
C          0.20720       -3.96810       -0.18210
C         -0.06690       -4.28110        1.14630
C         -0.03200       -3.27700        2.11550
C          0.29500       -1.96220        1.75850
C         -0.17640        1.12630        0.95390
C         -1.66020        1.11320        0.97790
C         -2.46190        0.28870        0.19200
C         -3.85420        0.40540        0.28230
C         -4.43800        1.33400        1.15830
C         -3.63710        2.15090        1.94980
C         -2.25330        2.04350        1.85900
Ag         3.45050        0.09600       -0.02630
Br         3.45050       -1.88610       -1.69350
C          3.45050        1.74140        1.35760
C          2.60620        2.57470        1.96660
C          5.60050        0.09600       -0.02630
N          6.38740        1.20720        0.11670
C          6.05020        2.63300        0.04680
C          7.65850        0.79250        0.11790
C          7.67770       -0.56430       -0.03110
N          6.41030       -1.00100       -0.15670
C          6.08550       -2.42680       -0.17860
H         -0.80730        2.22380       -1.32920
H         -1.42080        2.72500       -3.61900
H         -0.50530        1.40200       -5.50450
H          1.01260       -0.47500       -5.03880
H          1.56850       -1.02530       -2.86850
H          0.69830       -2.47120       -1.58080
H          0.18020       -4.74470       -0.93730
H         -0.31040       -5.29930        1.42220
H         -0.25840       -3.52030        3.14480
H          0.31530       -1.21250        2.53460
H          0.05550        2.16220        0.64550
H          0.13850        0.97100        2.00740
H         -2.01500       -0.41950       -0.48990
H         -4.48250       -0.22060       -0.33140
H         -5.51280        1.42330        1.22350
H         -4.07350        2.87290        2.63010
H         -1.63710        2.69350        2.47550
H          4.45010        1.90840        1.71660
H          1.56560        2.63450        1.86310
H          3.01800        3.29520        2.67110
H          4.99410        2.79580       -0.24190
H          6.62400        3.09160       -0.78960
H          6.32040        3.15170        0.98560
H          8.53320        1.43690        0.18890
H          8.55870       -1.19320       -0.04800
H          6.98690       -3.02780        0.07450
H          5.80220       -2.76690       -1.18470
H          5.32700       -2.65040        0.60150
