57

P          0.91280       -0.03630       -0.03280
C          0.36340        1.70250        0.37520
C         -0.55410        1.95790        1.42750
C         -1.01140        3.25110        1.70680
C         -0.56630        4.33350        0.95640
C          0.33400        4.12160       -0.07600
C          0.78350        2.83340       -0.35890
C          0.56800       -0.53860       -1.74730
C          0.46260        0.40630       -2.78270
C          0.19440        0.00870       -4.09340
C         -0.00060       -1.33910       -4.38750
C          0.07990       -2.29070       -3.37040
C          0.37080       -1.89700       -2.05970
C         -0.27650       -1.03340        0.95280
C         -1.75500       -1.08390        0.81590
C         -2.48520       -0.32910       -0.09360
C         -3.87520       -0.46470       -0.12790
C         -4.52560       -1.35220        0.74210
C         -3.78870       -2.10770        1.65390
C         -2.40820       -1.97210        1.69170
Ag         3.37280       -0.03630       -0.03280
Br         3.43770        1.57890       -1.93910
C          3.41000       -1.45230        1.63550
C          2.50300       -2.08690        2.37690
N          5.47280       -0.03630       -0.03280
C          5.97260        0.29100        1.33310
C          5.94590       -1.43430       -0.22840
C          6.17380        0.83000       -1.00440
H         -0.95600        1.18330        2.05090
H         -1.72020        3.41360        2.50760
H         -0.92080        5.33350        1.16640
H          0.68190        4.95670       -0.67300
H          1.43780        2.78270       -1.17630
H          0.59060        1.45450       -2.60740
H          0.13450        0.75100       -4.87880
H         -0.21720       -1.64320       -5.40320
H         -0.08300       -3.33600       -3.59720
H          0.42750       -2.66050       -1.29960
H         -0.09430       -0.75900        2.01080
H          0.03670       -2.08370        0.78960
H         -1.98720        0.35580       -0.76520
H         -4.44830        0.12010       -0.83100
H         -5.60080       -1.45650        0.71240
H         -4.27970       -2.79720        2.33120
H         -1.84240       -2.56590        2.40660
H          4.35360       -1.78590        1.98910
H          1.46260       -2.03080        2.31090
H          2.83790       -2.77450        3.14780
H          5.69640       -0.36500        2.15890
H          5.60410        1.29980        1.61610
H          7.08530        0.31920        1.37030
H          5.61330       -2.18380        0.49450
H          7.05850       -1.49850       -0.23480
H          5.58870       -1.79790       -1.21580
H          5.93410        1.89980       -0.82690
H          5.94700        0.53150       -2.04920
H          7.28040        0.74110       -0.89560
