84

P          1.07550       -0.03850       -0.05320
O          0.34110        0.07920       -1.60620
C          0.65200        1.30180       -2.28770
C          0.15700        1.17840       -3.74310
O          0.76580       -1.20150        1.19950
C         -0.60670       -1.63480        1.13980
C         -0.91280       -2.73250        2.14150
C         -0.18710        1.05800        0.77600
C         -1.31490        1.59000        0.09590
C         -2.25050        2.38740        0.75120
C         -2.11610        2.64770        2.11010
C         -1.03140        2.12400        2.81240
C         -0.06490        1.35130        2.15230
Ag         3.53550       -0.03850       -0.05320
Br         3.53550        0.12690        2.53150
C          3.53550       -0.17580       -2.19880
C          2.66270       -0.52870       -3.14370
C          5.68550       -0.03850       -0.05320
N          6.37980       -1.18840       -0.16480
C          6.06150       -2.67370       -0.33840
C          4.92370       -3.26260       -1.01640
C          3.70440       -2.64320       -1.37740
C          4.84230       -4.59350       -1.42070
C          5.78770       -5.50170       -1.11180
C          5.60020       -6.90490       -1.63990
C          6.81820       -5.09200       -0.27970
C          6.97130       -3.72860        0.12980
C          8.04000       -3.56300        1.15950
C          7.77710       -0.79600       -0.12950
C          7.76030        0.67100       -0.45340
N          6.51940        1.10320        0.15410
C          6.24040        2.50990        0.52490
C          4.99420        3.17930        0.24280
C          3.87650        2.62720       -0.55950
C          4.76370        4.49470        0.67280
C          5.72190        5.20130        1.37730
C          5.47130        6.61230        1.82000
C          6.93280        4.59340        1.66400
C          7.21650        3.27830        1.25540
C          8.57170        2.76470        1.67710
H          1.72810        1.53600       -2.28020
H          0.19360        2.20630       -1.85590
H          0.52940        0.27120       -4.26140
H          0.48740        2.04790       -4.34650
H         -0.94830        1.10490       -3.76500
H         -0.90430       -1.96010        0.11960
H         -1.31620       -0.85470        1.48470
H         -0.39120       -3.66740        1.87010
H         -2.01370       -2.91760        2.14200
H         -0.62890       -2.40470        3.16510
H         -1.52320        1.40010       -0.94170
H         -3.09190        2.78910        0.19960
H         -2.86330        3.24570        2.61560
H         -0.94370        2.31350        3.87390
H          0.75620        0.95430        2.72840
H          4.53310       -0.02220       -2.60140
H          1.71250       -0.94930       -2.91140
H          2.96620       -0.56770       -4.18400
H          3.58140       -1.89800       -0.62060
H          2.80050       -3.23890       -1.13030
H          3.75280       -2.55980       -2.48400
H          3.98990       -4.93690       -2.00750
H          4.70580       -6.98150       -2.30340
H          5.44450       -7.62090       -0.81010
H          6.46790       -7.19730       -2.26410
H          7.51720       -5.85070        0.05860
H          9.04230       -3.81120        0.75990
H          7.80990       -4.27680        1.98630
H          8.02090       -2.61850        1.70440
H          8.41910       -1.34840       -0.85450
H          8.16150       -0.80690        0.90060
H          7.63820        0.78540       -1.55830
H          8.70960        1.13110       -0.19600
H          4.20840        1.72210       -1.01130
H          3.63770        3.30470       -1.40960
H          2.96470        2.49930        0.06390
H          3.82330        4.98420        0.43640
H          4.46500        6.96890        1.51220
H          6.23280        7.28320        1.36830
H          5.54260        6.66930        2.92570
H          7.66990        5.16610        2.21350
H          9.07220        3.44140        2.40030
H          9.27140        2.77660        0.82060
H          8.48150        1.77340        2.16680
