66

P          0.93530        0.06040        0.04660
C          0.60460       -1.10710        1.38390
C         -0.73310       -1.29540        1.77320
C         -1.05220       -2.12950        2.84870
C         -0.03590       -2.77940        3.55030
C          1.29610       -2.61220        3.16150
C          1.62000       -1.79070        2.07180
C          0.44340        1.76950        0.45190
C          1.34660        2.79770        0.77550
C          0.88770        4.10720        0.98670
C         -0.46570        4.41550        0.82690
C         -1.37310        3.40320        0.52040
C         -0.92220        2.08440        0.38260
C          0.40980        0.24000       -1.77140
C         -1.03920        0.12900       -2.34070
C         -1.80490        1.45470       -2.61410
C         -0.93400        2.53880       -3.27810
C          0.41580        2.72230       -2.58730
C          1.16390        1.38440       -2.51880
Ag         3.39530        0.06040        0.04660
Br         3.39530        0.86550        2.50830
C          3.39530       -0.60790       -1.99690
C          3.97580        0.02160       -3.02080
N          5.49530        0.06040        0.04660
C          6.21110       -0.70140       -0.83240
C          7.59550       -0.85040       -0.70180
C          8.31420       -0.13350        0.28160
N          9.74990       -0.29160        0.47820
C         10.50770       -1.38180       -0.10100
C         10.52990        0.59900        1.33320
C          7.55620        0.72280        1.11010
C          6.17280        0.76840        0.99050
H         -1.53520       -0.78800        1.25360
H         -2.08530       -2.26110        3.14490
H         -0.28260       -3.40950        4.39600
H          2.08170       -3.11580        3.71020
H          2.65190       -1.67410        1.78870
H          2.39970        2.61630        0.84470
H          1.58630        4.89230        1.24220
H         -0.81050        5.43720        0.93420
H         -2.42070        3.64100        0.37530
H         -1.63370        1.30640        0.15830
H          0.84890       -0.71770       -2.11340
H         -1.65040       -0.61360       -1.78580
H         -0.90040       -0.29080       -3.36450
H         -2.26890        1.87040       -1.71790
H         -2.66630        1.24150       -3.28640
H         -1.48350        3.50790       -3.27530
H         -0.73080        2.25680       -4.33020
H          0.29020        3.17670       -1.60380
H          1.02860        3.45060       -3.16170
H          2.15000        1.57850       -2.05960
H          1.31800        1.06230       -3.57320
H          2.91190       -1.55990       -2.18840
H          4.49290        0.96230       -2.88530
H          3.92730       -0.42780       -4.01000
H          5.71270       -1.32330       -1.56170
H          8.05750       -1.53780       -1.38410
H          9.91530       -2.09490       -0.69590
H         10.97620       -1.97530        0.71150
H         11.31220       -0.97110       -0.75230
H          9.99740        1.45210        1.75800
H         11.37510        1.02310        0.75250
H         10.96600        0.00560        2.18380
H          7.97330        1.33220        1.87130
H          5.67710        1.43850        1.65700
