45

P          1.27500        0.00000        0.00000
N          0.29100        1.45590        0.30360
C         -1.14880        1.28830        0.21570
C         -1.48150       -0.15700       -0.07920
C         -3.01270       -0.29950       -0.13550
C         -0.83780       -0.52300       -1.47670
N          0.62510       -0.26050       -1.60230
N          0.57780       -0.86870        1.34700
C         -0.87800       -1.04480        1.08470
Ag         3.73500        0.00030       -0.00050
Br         3.73440        1.64960       -1.99750
C          3.73550       -1.36880        1.65730
C          4.31930       -1.06630        2.80670
N          5.83500        0.00060       -0.00090
C          6.52820        1.19010       -0.11350
C          5.85180        2.52680       -0.01460
C          7.93030        1.21700       -0.05340
C          8.64150        0.04120        0.10730
C          7.95920       -1.15460        0.20280
C          6.55300       -1.17480        0.16810
C          5.91220       -2.53790        0.01660
H          0.61030        2.22310       -0.33320
H         -1.55610        1.96110       -0.57730
H         -1.58780        1.62070        1.18290
H         -3.43540        0.36240       -0.92530
H         -3.46770        0.01040        0.83230
H         -3.30620       -1.34490       -0.35110
H         -1.36070        0.04910       -2.27780
H         -1.03000       -1.59700       -1.67950
H          0.79470        0.60610       -2.16320
H          0.72060       -0.27180        2.19780
H         -1.43130       -0.82960        2.02800
H         -1.07000       -2.11050        0.84270
H          3.22650       -2.32130        1.54460
H          4.82530       -0.11580        2.93380
H          4.29900       -1.77530        3.63290
H          4.77840        2.42650        0.23250
H          6.03040        3.13630       -0.92350
H          6.26780        3.07530        0.86050
H          8.47070        2.15540       -0.07860
H          9.72370        0.05510        0.14960
H          8.53200       -2.07500        0.27760
H          6.67550       -3.32970       -0.14070
H          5.29070       -2.53580       -0.90810
H          5.34240       -2.90350        0.87270
