82

P          1.05750        0.06760        0.04620
C          0.06790        1.58990       -0.53330
C         -1.46800        1.52070       -0.61330
C          0.37630        2.76950        0.43580
C          0.51590        1.90970       -1.99260
C          0.52270       -1.18050       -1.18180
C          1.20190       -1.36470       -2.39870
C          0.67940       -2.22700       -3.38020
C         -0.52980       -2.89830       -3.16400
C         -1.20580       -2.72730       -1.96360
C         -0.68400       -1.88570       -0.98530
C          0.43330       -0.18060        1.75610
C         -0.95310       -0.30790        1.99920
C         -1.46330       -0.46280        3.29160
C         -0.59830       -0.49760        4.36770
C          0.78370       -0.37570        4.15720
C          1.29770       -0.21710        2.85590
Ag         3.51750        0.06760        0.04620
Br         3.51750       -2.37900        0.89610
C          3.51750        2.09850       -0.65930
C          4.30850        2.19800       -1.71830
C          5.66750        0.06760        0.04620
N          6.50710       -1.05980        0.00050
C          6.28590       -2.50830       -0.20630
C          6.60600       -3.32160        1.08410
C          6.21930       -4.80270        0.94240
C          6.65600       -5.62550        2.15680
C          7.76840       -0.60190        0.01060
C          7.78050        0.74590        0.11940
C          9.00010        1.44950        0.22480
C         10.20780        0.73930        0.15210
C         10.19190       -0.65090       -0.01310
C          8.97910       -1.33360       -0.08010
N          6.50120        1.21480        0.12890
C          6.29870        2.68350        0.38970
C          6.80150        3.62810       -0.76880
C          6.81130        5.15060       -0.49540
C          5.50800        5.76440        0.01900
H         -1.95120        1.53140        0.37530
H         -1.81070        0.67620       -1.24030
H         -1.84790        2.46110       -1.07760
H         -0.10960        2.60000        1.41700
H          0.00420        3.73520        0.02780
H          1.42520        2.90160        0.72310
H          0.16080        1.12580       -2.69170
H          1.59460        1.95480       -2.16530
H          0.09880        2.87710       -2.34630
H          2.11790       -0.82760       -2.60260
H          1.19230       -2.36360       -4.32160
H         -0.94970       -3.54510       -3.92460
H         -2.15170       -3.23090       -1.79060
H         -1.26550       -1.78940       -0.09900
H         -1.69520       -0.30140        1.23370
H         -2.53070       -0.55830        3.44180
H         -0.99630       -0.61690        5.36820
H          1.44820       -0.40350        5.00900
H          2.36300       -0.11340        2.71490
H          2.81020        2.90030       -0.70030
H          4.93620        1.36790       -2.02010
H          4.26120        3.06950       -2.36540
H          6.93750       -2.87430       -1.02930
H          5.32610       -2.70190       -0.69040
H          6.06560       -2.89970        1.95710
H          7.68490       -3.25390        1.32150
H          6.69400       -5.23870        0.03840
H          5.11620       -4.87970        0.83820
H          7.76370       -5.62150        2.24700
H          6.32190       -6.67820        2.03270
H          6.21430       -5.22430        3.09380
H          9.06150        2.51710        0.36370
H         11.15180        1.26140        0.21470
H         11.12520       -1.19910       -0.07670
H          9.00250       -2.40680       -0.19630
H          6.87740        2.94250        1.30360
H          5.27110        2.92210        0.69240
H          6.24780        3.48850       -1.69140
H          7.82490        3.37940       -1.08600
H          7.05670        5.64730       -1.46450
H          7.61490        5.40240        0.22450
H          4.64900        5.54240       -0.64650
H          5.63320        6.87120        0.06590
H          5.29370        5.40990        1.04840
