45

P          1.27500        0.00000        0.00000
N          0.30190        1.39970       -0.51270
C         -1.13740        1.21620       -0.52380
C         -1.48290       -0.11840        0.10570
C         -3.01580       -0.23320        0.18410
C         -0.87980       -1.24530       -0.82320
N          0.56160       -1.08360       -1.17030
N          0.63180        0.03740        1.62520
C         -0.84670       -0.16080        1.55500
Ag         3.73500        0.00030       -0.00050
Br         3.73500        1.98550        1.66300
C          3.73500       -1.64760       -1.38130
C          4.28110       -1.55700       -2.59180
C          5.88500        0.00060       -0.00090
N          6.61290       -1.06330       -0.14630
C          6.17870       -2.44500       -0.09650
C          8.02160       -0.76610       -0.18390
C          8.08610        0.75090       -0.20920
N          6.74030        1.14540        0.10570
C          6.40360        2.54390        0.24780
H          0.63580        1.73670       -1.44560
H         -1.52260        1.27080       -1.56930
H         -1.58900        2.06370        0.03770
H         -3.46370       -0.15460       -0.83200
H         -3.43470        0.59880        0.79450
H         -3.32120       -1.19590        0.63700
H         -1.45580       -1.28070       -1.77640
H         -1.02980       -2.22570       -0.32540
H          0.66480       -0.63990       -2.11230
H          0.84950        0.97850        2.02770
H         -1.33680        0.61800        2.18510
H         -1.09140       -1.13950        2.01530
H          3.25360       -2.57320       -1.08050
H          4.75940       -0.64030       -2.91420
H          4.24980       -2.41290       -3.26000
H          5.15830       -2.54510        0.31350
H          6.79360       -2.98650        0.65640
H          6.32340       -2.93880       -1.08020
H          8.54000       -1.20780       -1.06210
H          8.47480       -1.15200        0.75840
H          8.31000        1.12500       -1.23190
H          8.83430        1.12940        0.51950
H          7.28970        3.17710        0.03740
H          6.16430        2.76550        1.30330
H          5.59720        2.82330       -0.45780
