48

P          1.27500        0.00000        0.00000
N          0.26610       -1.16820        0.87710
C         -1.16170       -0.99720        0.75920
C         -1.47450        0.18260       -0.13610
C         -3.00040        0.32280       -0.23140
C         -0.83960        1.46600        0.53490
N          0.62100        1.38950        0.83580
N          0.61560       -0.43540       -1.55710
C         -0.83800       -0.10420       -1.55380
Ag         3.73500        0.00030       -0.00050
Br         3.73440        2.08860       -1.53250
C          3.73550       -1.73320        1.27130
C          3.78830       -2.96060        0.76280
P          6.19500        0.00070       -0.00090
N          7.36780        1.07950       -0.79040
C          7.19310        2.48520       -0.38630
C          8.72820        0.67320       -1.08100
O          7.30500       -0.75110        1.05010
C          6.63600       -1.03190        2.26110
O          6.11560       -1.08300       -1.33550
C          5.85840       -0.48270       -2.57970
H          0.55820       -1.18950        1.88130
H         -1.60980       -0.85540        1.77770
H         -1.59610       -1.94180        0.35120
H         -3.44600        0.46910        0.78290
H         -3.45390       -0.60060       -0.65250
H         -3.28860        1.18500       -0.86580
H         -1.37690        1.68400        1.48950
H         -1.02110        2.33240       -0.13180
H          0.77660        1.24100        1.85950
H          0.75090       -1.46720       -1.67110
H         -1.39230       -0.94500       -2.03180
H         -1.00590        0.78940       -2.18770
H          3.70930       -1.59430        2.34700
H          3.82250       -3.10680       -0.31020
H          3.79470       -3.82070        1.42570
H          6.14210        2.69380       -0.08290
H          7.38920        3.14780       -1.25740
H          7.85590        2.75570        0.45630
H          8.73900       -0.31340       -1.58680
H          9.35690        0.67980       -0.17240
H          9.15990        1.40520       -1.81440
H          7.36370       -0.97100        3.09410
H          6.23200       -2.06400        2.23590
H          5.84000       -0.29230        2.53250
H          6.73950       -0.63820       -3.23290
H          5.66340        0.59860       -2.54860
H          4.98600       -0.99470       -3.03350
