42

P          0.91570       -0.05370        0.00060
O          0.57880       -1.67560        0.40820
C          1.06050       -2.50460       -0.62780
C          0.64620       -3.94020       -0.34060
O          0.61840        1.18140        1.14480
C         -0.75860        1.14960        1.46840
C         -1.08390        2.24680        2.46840
C         -0.12290        0.44920       -1.39710
C         -1.13140       -0.33810       -1.98780
C         -1.70480        0.08230       -3.20160
C         -1.28070        1.26860       -3.81630
C         -0.30450        2.05640       -3.21290
C          0.25870        1.65120       -2.00600
Ag         3.37570       -0.05370        0.00060
Br         3.37570       -0.84330        2.46730
C          3.37570        0.60170       -2.04710
C          4.30030        1.27440       -2.73990
C          5.52570       -0.05370        0.00060
N          6.25370       -0.37880        1.08980
C          7.53200       -0.25710        0.69250
C          7.53810        0.11730       -0.62870
O          6.29730        0.22990       -1.01830
H          2.16830       -2.45660       -0.69670
H          0.61650       -2.24450       -1.61120
H          1.10630       -4.28500        0.60830
H          0.97890       -4.60280       -1.16790
H         -0.46030       -4.00910       -0.25500
H         -1.04170        0.17190        1.91960
H         -1.39150        1.36250        0.57900
H         -0.51960        2.08920        3.40990
H         -2.17300        2.23040        2.69230
H         -0.82670        3.23970        2.04160
H         -1.43890       -1.27530       -1.55570
H         -2.45190       -0.52620       -3.68850
H         -1.69280        1.57230       -4.77240
H          0.04420        2.96410       -3.69340
H          1.05320        2.25480       -1.58070
H          2.45760        0.40060       -2.58120
H          5.22380        1.63950       -2.33500
H          4.09320        1.54090       -3.77170
H          8.39710       -0.43800        1.31280
H          8.40590        0.30410       -1.25340
