39

P          1.27500        0.00000        0.00000
N          0.20910        1.41200       -0.18640
C         -1.21470        1.15330       -0.20540
C         -1.46990       -0.31510        0.08210
C         -2.99060       -0.53880        0.13780
C         -0.82130       -1.14900       -1.09260
N          0.61400       -0.85410       -1.37490
N          0.65720       -0.37940        1.58960
C         -0.80250       -0.66790        1.47680
Ag         3.73500        0.00030       -0.00050
Br         3.73440        1.13460       -2.32890
C          3.73550       -0.94130        1.93240
C          4.18460       -0.30630        3.01660
N          5.83500        0.00060       -0.00090
C          6.60810        0.75930       -0.88190
F          6.12820        1.70400       -1.69870
C          8.00400        0.78170       -0.84430
C          8.68800       -0.01980        0.03590
F         10.04390       -0.02690        0.05430
C          7.96960       -0.81220        0.89920
C          6.57110       -0.77280        0.89870
F          6.03650       -1.70390        1.70970
H          0.50550        1.98400       -1.01120
H         -1.63820        1.43510       -1.19950
H         -1.69360        1.80820        0.55530
H         -3.46160       -0.23820       -0.82760
H         -3.44610        0.09100        0.93560
H         -3.23160       -1.59960        0.33810
H         -1.39840       -0.96150       -2.02920
H         -0.93180       -2.22370       -0.86040
H          0.70210       -0.22240       -2.20270
H          0.82100        0.45580        2.20150
H         -1.33350       -0.11350        2.28010
H         -0.96560       -1.74780        1.67460
H          3.36310       -1.95740        2.01640
H          4.57540        0.70120        2.93700
H          4.18390       -0.81030        3.97840
H          8.55430        1.44530       -1.50020
H          8.49590       -1.48050        1.56870
