82

P          0.94240        0.03610       -0.07340
O          0.43230       -1.27580       -1.05560
C          0.97970       -1.24450       -2.35600
C          0.34820       -0.21370       -3.28840
O          0.56280       -0.09460        1.60490
C         -0.84330       -0.31020        1.73810
C         -1.30340       -0.25220        3.18490
C         -0.25550        1.33550       -0.56330
C         -1.49920        1.15030       -1.19410
C         -2.31100        2.26450       -1.47690
C         -1.89200        3.55760       -1.13940
C         -0.66770        3.74610       -0.50620
C          0.13240        2.64540       -0.21210
Ag         3.40240        0.03610       -0.07340
Br         3.36330       -1.81800        1.59310
C          3.18150        1.64670       -1.47430
C          4.11040        2.18160       -2.27120
C          5.55240        0.03610       -0.07340
N          6.31950        1.19460       -0.21930
C          6.04990        2.65950       -0.23930
C          4.97540        3.26940        0.51460
C          3.98970        2.54770        1.41000
C          4.80730        4.66900        0.51030
C          5.65240        5.51240       -0.18830
C          5.48430        7.00730       -0.10130
C          6.66520        4.96510       -0.95290
C          6.88640        3.57190       -1.01160
C          7.98740        3.15940       -1.97850
C          7.59430        0.76620       -0.08840
C          7.63830       -0.57060        0.10740
N          6.37800       -1.05360        0.14930
C          6.14060       -2.49500        0.15960
C          6.91940       -3.43370        0.93810
C          8.01060       -3.08580        1.93380
C          6.69340       -4.81670        0.79770
C          5.74220       -5.31460       -0.08990
C          5.51280       -6.78440       -0.26880
C          5.00770       -4.42780       -0.86120
C          5.20600       -3.05510       -0.77320
C          4.47540       -2.20250       -1.75080
H          0.77090       -2.24230       -2.80030
H          2.06780       -1.11940       -2.34690
H         -0.75010       -0.35110       -3.34490
H          0.75830       -0.34110       -4.30980
H          0.59600        0.81490       -2.96510
H         -1.13460       -1.28810        1.29880
H         -1.45210        0.50190        1.29960
H         -0.81400       -1.03840        3.78770
H         -2.40750       -0.40870        3.21120
H         -1.09750        0.75250        3.61500
H         -1.85210        0.16200       -1.44420
H         -3.27190        2.13290       -1.95370
H         -2.51570        4.41590       -1.35840
H         -0.33590        4.74310       -0.23720
H          1.07720        2.82210        0.28760
H          2.19300        2.03700       -1.64060
H          5.12020        1.81360       -2.32000
H          3.84050        2.97920       -2.95950
H          3.42960        1.77310        0.92030
H          3.16970        3.22220        1.74710
H          4.48510        2.12130        2.29730
H          4.01160        5.12490        1.08630
H          4.63330        7.29010        0.55690
H          5.30690        7.44080       -1.10610
H          6.40630        7.45620        0.32950
H          7.30060        5.65010       -1.50890
H          8.39230        4.03110       -2.54260
H          7.57790        2.46640       -2.74150
H          8.88560        2.73850       -1.50630
H          8.47860        1.36920       -0.07530
H          8.54080       -1.14460        0.18390
H          8.17560       -2.01330        2.11280
H          8.96900       -3.54060        1.58730
H          7.77320       -3.52890        2.92520
H          7.28310       -5.52230        1.37980
H          6.19090       -7.39030        0.36620
H          5.69760       -7.04720       -1.33340
H          4.46080       -7.03560       -0.01620
H          4.28840       -4.82410       -1.56660
H          3.84990       -2.79720       -2.44990
H          5.19060       -1.60140       -2.34260
H          3.79150       -1.56960       -1.20890
