50

P          1.08150        0.03280        0.04780
O          0.71240       -1.26770        1.12030
C         -0.62210       -1.18430        1.59980
C         -0.89100       -2.32930        2.56090
O          0.96050        1.71610        0.28810
C          1.51280        1.98280        1.56250
C          1.10730        3.37190        2.03800
C         -0.37480       -0.05060       -1.04740
C         -1.20640        1.02290       -1.40690
C         -2.32660        0.79270       -2.22170
C         -2.63080       -0.49880       -2.66860
C         -1.79620       -1.56300       -2.33940
C         -0.66750       -1.33660       -1.55680
Ag         3.54150        0.03280        0.04780
Br         3.48960        2.00280       -1.47330
C          3.55330       -1.70580        1.19690
C          3.67840       -1.64710        2.52850
N          5.64150        0.03280        0.04780
C          6.35680        1.03160       -0.57050
C          7.74500        1.00790       -0.66140
C          8.46240       -0.06000       -0.12200
O          9.81320       -0.15310       -0.21940
C         10.62250        0.75560       -0.87150
C          7.75510       -1.06400        0.52800
C          6.36040       -0.99870        0.61380
H         -1.37150       -1.35100        0.80440
H         -0.82100       -0.21580        2.10420
H         -0.70080       -3.30140        2.05400
H         -1.95810       -2.30620        2.87450
H         -0.24240       -2.24190        3.45380
H          2.62190        1.94770        1.50020
H          1.15440        1.27380        2.34700
H          1.41480        4.14100        1.30000
H          1.60730        3.58920        3.00760
H          0.00830        3.42480        2.19150
H         -1.00720        2.02880       -1.07140
H         -2.97140        1.61440       -2.49860
H         -3.51130       -0.67890       -3.27170
H         -2.02580       -2.56710       -2.67830
H         -0.03990       -2.18500       -1.30340
H          3.30680       -2.65310        0.73380
H          3.79000       -0.69310        3.02630
H          3.60170       -2.55390        3.11590
H          5.91220        1.88600       -1.01900
H          8.24300        1.82260       -1.16990
H         11.67770        0.42420       -0.80490
H         10.53050        1.75560       -0.39630
H         10.33880        0.82180       -1.94510
H          8.28130       -1.91100        0.95240
H          5.90340       -1.83350        1.10050
