50

P         -1.17990       -0.06010        0.93250
N         -1.08390       -1.21300       -0.43350
C         -2.25310       -1.06760       -1.32050
C          0.10590       -1.45390       -1.25020
C          1.34740       -1.30600       -0.47440
N          1.87250        0.08570       -0.25790
C          1.24720        1.45530       -0.27450
C         -0.07460        1.63180       -0.99920
N         -1.28260        1.36580       -0.15560
C         -1.72810        2.56020        0.56270
N          0.18190       -0.66790        2.00830
C         -0.20410       -1.59830        3.07260
C          1.59750       -0.12370        2.16620
C          2.60440       -0.02640        0.97170
Ag        -3.21260        0.04650        2.39580
Br        -2.39480        2.00600        3.69750
C         -3.95330       -1.63870        1.37880
C         -3.37840       -2.83870        1.28530
N         -4.93480       -0.00710        3.55760
C         -5.42460        0.92170        4.41410
O         -6.55360        0.53000        4.97090
C         -6.82540       -0.66780        4.51570
C         -5.84160       -1.01150        3.61610
H         -3.18300       -0.86940       -0.77100
H         -2.40280       -1.99700       -1.90570
H         -2.13870       -0.20420       -2.00710
H          0.15160       -0.93450       -2.22270
H          0.04500       -2.53530       -1.50440
H          2.16140       -1.92270       -0.90350
H          1.16260       -1.91130        0.43620
H          2.01540        2.13540       -0.71570
H          1.10110        1.93050        0.71840
H         -0.07440        1.10440       -1.96130
H         -0.09590        2.69430       -1.33540
H         -1.69400        3.46310       -0.08560
H         -1.09450        2.75720        1.44910
H         -2.79480        2.42710        0.83460
H         -1.17580       -1.33090        3.53220
H          0.53160       -1.59930        3.91340
H         -0.20270       -2.61590        2.64190
H          1.52300        0.89220        2.57620
H          2.18350       -0.83660        2.79370
H          3.31390       -0.89220        0.88920
H          3.31760        0.82180        1.11260
H         -4.89820       -1.49740        0.85880
H         -2.43540       -3.06780        1.75650
H         -3.87320       -3.60850        0.69250
H         -5.00720        1.90020        4.58510
H         -7.67300       -1.27390        4.81990
H         -5.78540       -1.95890        3.10290
