68

C          0.90100       -0.64300       -0.00200
N         -0.37450       -1.04570       -0.36600
C         -1.05850       -2.26330       -0.77760
C         -0.69850       -3.52730       -0.21630
C          0.49060       -3.74040        0.67980
C         -1.54040       -4.63060       -0.40430
C         -2.72740       -4.52010       -1.12200
C         -3.71370       -5.64040       -1.16010
C         -3.04540       -3.33070       -1.75740
C         -2.25510       -2.19080       -1.61180
C         -2.77340       -0.95880       -2.36920
C         -1.18090       -0.02730       -0.02020
C         -0.48050        0.99850        0.43370
N          0.81780        0.66870        0.48290
C          1.72590        1.76470        0.75170
C          1.42790        2.77250        1.74640
C          0.34170        2.68400        2.80700
C          2.12740        3.98340        1.73720
C          3.09620        4.24400        0.77360
C          3.71460        5.60770        0.68200
C          3.42910        3.25850       -0.15690
C          2.75810        2.03670       -0.18010
C          3.02500        1.08030       -1.31080
Ag         2.65840       -1.88140       -0.01350
Br         1.97200       -2.34980       -2.38470
C          2.98920       -1.31570        2.01610
C          2.31680       -0.52900        2.85780
N          4.37500       -3.09110       -0.02470
C          5.46630       -3.05680        0.86130
C          5.85790       -1.87170        1.72580
C          6.55190       -3.93910        0.71930
C          6.58440       -4.84700       -0.31880
C          5.56410       -4.83940       -1.23910
C          4.49940       -3.95040       -1.09630
H          1.42130       -3.53480        0.14420
H          0.58440       -4.80040        1.00020
H          0.39820       -3.11630        1.59100
H         -1.30340       -5.57690        0.06530
H         -3.40480       -6.46770       -0.48990
H         -3.86100       -6.00690       -2.19330
H         -4.67770       -5.24180       -0.76950
H         -3.96810       -3.28390       -2.32590
H         -3.65950       -1.20450       -2.99350
H         -1.99930       -0.56170       -3.05560
H         -3.17590       -0.13190       -1.76880
H         -2.24890       -0.00050       -0.02520
H         -0.91970        1.94770        0.70160
H         -0.20410        1.72230        2.84060
H         -0.39840        3.49910        2.64520
H          0.78500        2.82600        3.81570
H          1.86790        4.75490        2.45520
H          3.31840        6.29330        1.46220
H          3.44280        6.04360       -0.30480
H          4.81770        5.55380        0.76840
H          4.16930        3.48120       -0.91530
H          3.81260        1.45400       -1.99530
H          2.09340        0.95870       -1.90660
H          3.35100        0.10250       -0.91120
H          3.75420       -1.80310        2.53210
H          1.43500        0.01560        2.63010
H          2.67180       -0.46140        3.88590
H          5.34400       -0.94140        1.39740
H          6.91160       -1.57640        1.52160
H          5.81900       -2.08750        2.81420
H          7.42080       -3.87180        1.36800
H          7.43730       -5.50660       -0.43120
H          5.59740       -5.52350       -2.07790
H          3.74010       -4.03760       -1.84120
