49

C          0.90100       -0.64300       -0.00200
N         -0.33830       -1.08740       -0.06660
C         -0.77700       -2.54250       -0.13580
C         -1.64290       -2.88460        1.07010
C         -1.16250       -0.05300       -0.01340
C         -0.38520        1.08840        0.04730
N          0.90830        0.70990        0.05590
C          2.10760        1.53180        0.10380
C          1.81550        3.03090        0.18070
Ag         2.65840       -1.88140       -0.01350
Br         2.71150       -1.78210       -2.60110
C          2.61440       -1.96390        2.13450
C          2.53330       -3.12290        2.78470
N          4.37500       -3.09110       -0.02470
C          5.58950       -2.67230        0.02460
C          6.01040       -1.23800        0.04660
C          7.29680       -0.88450        0.50770
C          7.69850        0.45410        0.55670
C          6.83530        1.46360        0.12560
C          5.56980        1.12840       -0.34490
C          5.15220       -0.20680       -0.37480
N          6.49860       -3.74220        0.12800
C          5.76770       -4.97140        0.23520
C          4.31210       -4.53280        0.04140
H          0.10950       -3.17190       -0.15850
H         -1.36450       -2.66820       -1.06480
H         -1.06190       -2.75620        2.00400
H         -1.94840       -3.96040        0.99220
H         -2.55420       -2.26690        1.11070
H         -2.25670       -0.06230       -0.05940
H         -0.73940        2.11120        0.07820
H          2.69880        1.34540       -0.81980
H          2.71950        1.24650        0.99390
H          1.24450        3.35810       -0.70990
H          2.77520        3.58850        0.21230
H          1.23920        3.26330        1.10330
H          2.11810       -1.19660        2.72370
H          2.49090       -4.05850        2.25980
H          2.16120       -3.10500        3.81330
H          7.99350       -1.63250        0.86150
H          8.68130        0.71060        0.93180
H          7.14930        2.49560        0.15700
H          4.91290        1.91610       -0.68870
H          4.17520       -0.42850       -0.74280
H          7.52300       -3.67320        0.19260
H          5.93570       -5.37750        1.25790
H          6.07420       -5.70750       -0.53600
H          3.71260       -4.89330        0.88630
H          3.88100       -4.91350       -0.90690
