70

P          0.92830       -0.06900        0.00990
C          0.08160        0.77930       -1.47640
C         -1.43030        0.78400       -1.73220
C          0.53410        2.25380       -1.64020
C          0.52450       -1.89560       -0.10280
C         -0.98450       -2.23890       -0.08430
C          1.15740       -2.58410       -1.30430
C          0.42630        0.91510        1.54290
C          0.82440        2.39320        1.55940
C         -1.09230        0.84340        1.86120
Ag         3.38830       -0.06900        0.00990
Br         3.38830       -1.31300        2.28160
C          3.38830        0.96360       -1.87590
C          3.00500        0.43220       -3.03370
P          5.84830       -0.06900        0.00990
N          6.89530       -1.22200        0.85930
C          6.51320       -2.54170        0.31140
C          8.33910       -1.07520        0.87310
O          6.05800        1.20190        1.03520
C          6.23700        2.41740        0.45500
C          5.43110        3.45120        0.94800
C          5.47580        4.72740        0.38970
C          6.34670        5.00140       -0.65610
C          7.18560        4.00520       -1.14700
C          7.15480        2.69320       -0.62640
C          8.08370        1.71220       -1.29830
C          9.41660        2.10070       -1.56500
C         10.29770        1.23420       -2.21890
C          9.86990       -0.01110       -2.65820
C          8.53890       -0.38330       -2.45470
C          7.66370        0.44690       -1.75770
O          6.41410        0.01170       -1.54840
H          0.51790        0.23050       -2.33060
H         -1.99200        1.37380       -0.99290
H         -1.87820       -0.19870       -1.86720
H         -1.61060        1.28760       -2.71160
H         -0.11220        2.95460       -1.09220
H          0.44670        2.56390       -2.70440
H          1.56660        2.45290       -1.31660
H          0.94420       -2.35600        0.81540
H         -1.49100       -1.97940       -1.01890
H         -1.52880       -1.80010        0.76190
H         -1.12710       -3.33580        0.00770
H          0.78390       -2.14890       -2.25340
H          0.88820       -3.66540       -1.29280
H          2.26090       -2.50660       -1.24950
H          0.94670        0.43080        2.38280
H          0.17060        3.01230        0.92790
H          1.88870        2.53180        1.29170
H          0.65720        2.79760        2.58190
H         -1.71170        1.30190        1.08210
H         -1.31890        1.39760        2.79880
H         -1.42970       -0.18460        2.04950
H          3.74010        1.99080       -1.86280
H          2.64850       -0.58680       -3.09500
H          3.04290        1.04270       -3.93270
H          5.41040       -2.69530        0.36640
H          6.97080       -3.37580        0.88190
H          6.79900       -2.63280       -0.76210
H          8.62240       -0.07100        1.27200
H          8.79750       -1.27970       -0.10490
H          8.75640       -1.83490        1.56800
H          4.73630        3.25230        1.75390
H          4.82450        5.50390        0.76590
H          6.37060        5.98800       -1.10040
H          7.83710        4.25370       -1.97600
H          9.78490        3.06530       -1.24430
H         11.32300        1.53970       -2.39510
H         10.55520       -0.68120       -3.16650
H          8.22180       -1.36780       -2.79650
