39

C          0.90100       -0.64300       -0.00200
N         -0.36750       -1.12030       -0.01880
C         -0.76620       -2.52280       -0.02490
C         -1.57800       -2.85790        1.22710
C         -1.15020       -0.02420       -0.00110
C         -0.36320        1.09520        0.00190
N          0.92500        0.70520        0.00110
C          2.11520        1.54670       -0.01230
C          2.16960        2.43690        1.22480
Ag         2.65840       -1.88140       -0.01350
Br         2.62950       -1.89850       -2.60330
C          2.68250       -1.86730        2.13630
C          1.78710       -1.24660        2.90860
N          4.37500       -3.09110       -0.02470
C          4.46960       -4.08770        0.89970
C          5.54170       -4.98230        0.86160
Cl         5.48850       -6.48320        1.77280
C          6.63270       -4.69100        0.04930
C          6.57220       -3.59780       -0.81400
C          5.37080       -2.88120       -0.92910
H          0.13420       -3.17030       -0.04710
H         -1.37110       -2.72150       -0.92720
H         -0.96870       -2.67390        2.13730
H         -1.87230       -3.92640        1.19980
H         -2.49650       -2.23670        1.27070
H         -2.24060       -0.05640       -0.01410
H         -0.69720        2.12390        0.00520
H          2.09970        2.17830       -0.92590
H          3.02790        0.91290       -0.04290
H          1.28770        3.09830        1.26020
H          3.08050        3.06120        1.17480
H          2.20790        1.80750        2.13490
H          3.48260       -2.39260        2.64250
H          0.95450       -0.68900        2.50890
H          1.88870       -1.29490        3.98840
H          3.60560       -4.32290        1.50920
H          7.51450       -5.31760        0.07620
H          7.44370       -3.32090       -1.39430
H          5.32990       -2.01700       -1.57920
