37

C          0.90100       -0.64300       -0.00200
N         -0.15760       -0.76580       -0.84630
C         -0.32160       -1.61170       -2.02510
C         -1.02650        0.21410       -0.52490
C         -0.52090        0.90510        0.54410
N          0.67490        0.37800        0.86400
C          1.39070        0.69820        2.10050
Ag         2.65840       -1.88140       -0.01350
Br         4.14890        0.23240        0.12090
C          1.42120       -3.63620       -0.12510
C          0.13550       -3.66800        0.23580
N          4.37500       -3.09110       -0.02470
C          4.48960       -4.26420        0.68120
O          3.59580       -4.53370        1.68030
C          4.02230       -4.93350        2.95770
C          5.70470       -4.98660        0.62750
C          6.72970       -4.55800       -0.20810
C          6.58130       -3.36840       -0.89230
C          5.43790       -2.60630       -0.73200
H          0.53200       -2.30130       -2.15850
H         -0.34840       -0.95810       -2.92590
H         -1.28000       -2.16450       -1.97110
H         -1.96110        0.41390       -1.03370
H         -1.01350        1.71250        1.07300
H          0.83160        1.46000        2.68200
H          2.41000        1.05880        1.93380
H          1.40490       -0.21780        2.73980
H          1.88900       -4.57260       -0.41000
H         -0.37370       -2.79330        0.61330
H         -0.41750       -4.59960        0.20290
H          3.25190       -4.71710        3.72690
H          4.92400       -4.37240        3.28030
H          4.25990       -6.01600        2.96140
H          5.87950       -5.85210        1.25450
H          7.64850       -5.12290       -0.28650
H          7.37030       -3.03640       -1.57810
H          5.32880       -1.70720       -1.31970
