60

C          0.90100       -0.64300       -0.00200
N         -0.40350       -1.07170        0.07730
C         -1.03370       -2.41460        0.25620
C         -0.01770       -3.53140        0.54310
C         -2.01650       -2.36080        1.45800
C         -1.83380       -2.78560       -1.01050
C         -1.14890        0.04740       -0.02360
C         -0.33570        1.12580       -0.13970
N          0.94560        0.72510       -0.12500
C          2.10000        1.63070       -0.27880
C          2.10780        2.68500        0.86800
C          3.43430        0.88550       -0.25390
C          1.96200        2.38570       -1.62480
Ag         2.65840       -1.88140       -0.01350
Br         2.57260       -1.97920       -2.60020
C          2.72970       -1.80030        2.13380
C          1.84560       -1.12870        2.87950
P          4.66930       -3.29850       -0.02670
N          5.60180       -3.61520       -1.50490
C          6.11620       -2.34130       -2.04050
C          6.65850       -4.62190       -1.40400
O          6.09940       -3.18270        0.92410
C          5.85690       -2.64990        2.19120
O          3.77320       -4.70540       -0.37310
C          3.21560       -5.17220        0.83380
H          0.49530       -3.35500        1.50940
H          0.72570       -3.62610       -0.27110
H         -0.55180       -4.50680        0.63740
H         -1.48440       -2.07050        2.38890
H         -2.50980       -3.34370        1.62630
H         -2.83450       -1.62760        1.29410
H         -1.15540       -2.88380       -1.88350
H         -2.59840       -2.01370       -1.24260
H         -2.36870       -3.75290       -0.87190
H         -2.22430        0.09000       -0.02010
H         -0.65480        2.15540       -0.24690
H          2.21400        2.17900        1.85180
H          1.17730        3.27460        0.87410
H          2.96160        3.38850        0.73730
H          3.57360        0.36790        0.72350
H          4.29020        1.58110       -0.38760
H          3.48340        0.13660       -1.06520
H          1.07780        3.05500       -1.61400
H          1.83070        1.66300       -2.45810
H          2.85230        3.01470       -1.82780
H          3.46990       -2.32150        2.68870
H          1.03130       -0.55960        2.46060
H          1.93290       -1.13960        3.96090
H          5.34010       -1.54420       -2.01140
H          6.39730       -2.46240       -3.10870
H          6.99420       -1.97720       -1.46570
H          6.23170       -5.58670       -1.07020
H          7.46950       -4.29510       -0.72120
H          7.10410       -4.77670       -2.41190
H          6.83070       -2.53870        2.70990
H          5.28830       -3.39150        2.78360
H          5.44510       -1.61220        2.16140
H          2.38310       -5.86060        0.58600
H          2.75000       -4.36520        1.43530
H          3.96170       -5.73370        1.43950
