65

C          0.90100       -0.64300       -0.00200
N         -0.38690       -1.17520       -0.07350
C         -0.94020       -2.59970       -0.08990
C         -0.11040       -3.79370       -0.07850
C          1.32720       -3.82840       -0.28760
C         -0.61740       -5.09320        0.00660
C         -1.95890       -5.33990        0.03220
C         -2.45230       -6.75700        0.12720
C         -2.82600       -4.26700       -0.06940
C         -2.36880       -2.92210       -0.13580
C         -3.49890       -1.93750       -0.28830
C         -1.13410       -0.04990       -0.14510
C         -0.35170        1.06580       -0.12490
N          0.95100        0.75770        0.00430
C          2.07620        1.79010        0.07900
C          1.87050        3.25240        0.19030
C          0.60260        4.06170        0.42040
C          2.97210        4.15070        0.14210
C          4.27400        3.72750        0.04520
C          5.45610        4.65310       -0.02380
C          4.52160        2.38680        0.03530
C          3.49090        1.44400        0.06300
C          4.04120        0.09430        0.09220
Ag         2.65840       -1.88140       -0.01350
Br         2.73980       -1.74200       -2.59850
C          2.59090       -1.99720        2.13230
C          1.55090       -1.54700        2.84530
N          4.37500       -3.09110       -0.02470
C          4.80040       -3.67340       -1.20270
C          5.88440       -4.55560       -1.26560
C          6.60630       -4.84010       -0.12270
F          7.66290       -5.68850       -0.16430
C          6.23280       -4.24360        1.06420
C          5.12140       -3.39770        1.09730
H          1.43190       -3.05990       -1.01440
H          1.64910       -4.67430       -0.93740
H          1.89710       -3.89480        0.65310
H          0.06030       -5.94500        0.02570
H         -1.60930       -7.48050        0.21440
H         -3.03390       -7.02000       -0.77890
H         -3.08520       -6.87070        1.03030
H         -3.88360       -4.50020       -0.09410
H         -4.49510       -2.42330       -0.37770
H         -3.37420       -1.38840       -1.24730
H         -3.56970       -1.28210        0.59990
H         -2.18310        0.06000       -0.22800
H         -0.80670        2.01190       -0.23090
H         -0.31380        3.59000        0.76630
H          0.40900        4.71950       -0.45550
H          0.78060        4.73050        1.29410
H          2.81570        5.22410        0.19840
H          5.15030        5.71670       -0.00340
H          6.00900        4.45900       -0.97040
H          6.14580        4.45490        0.82570
H          5.56350        2.07910        0.00650
H          5.14660       -0.00910        0.09900
H          3.72720       -0.35050       -0.82290
H          3.72700       -0.30950        1.04290
H          3.33530       -2.36380        2.79280
H          0.67670       -1.09420        2.41010
H          1.57840       -1.60420        3.93100
H          4.29390       -3.57120       -2.12700
H          6.15090       -5.02730       -2.20320
H          6.80000       -4.43280        1.96770
H          4.97690       -2.98020        2.04910
