30

C         -0.32800       -1.08200        0.00300
N         -1.05280       -0.01420        0.41690
H         -2.02180        0.03540        0.78570
C         -0.27730        1.06260        0.20360
Cl        -0.75800        2.71530        0.53990
C          0.91840        0.64500       -0.32400
Cl         2.28550        1.65210       -0.76130
N          0.88000       -0.69040       -0.46040
Ag        -0.94440       -3.14170        0.01670
Br         0.78250       -3.67080       -1.83970
C         -2.37790       -2.70250        1.55760
C         -2.96200       -3.50950        2.45300
N         -1.54650       -5.15350        0.03000
C         -0.62650       -6.10530       -0.31950
C         -0.96090       -7.45410       -0.39870
C         -2.27760       -7.85060       -0.17690
C         -2.67980       -9.28760       -0.32730
C         -3.22430       -6.87820        0.15800
C         -2.83650       -5.53630        0.27930
H          1.65060       -1.28670       -0.82810
H         -2.65780       -1.67690        1.68490
H         -2.77570       -4.56820        2.53200
H         -3.66460       -3.08160        3.16450
H          0.39980       -5.84340       -0.49570
H         -0.19560       -8.17830       -0.65620
H         -1.80220       -9.93560       -0.55060
H         -3.39970       -9.38380       -1.16800
H         -3.15540       -9.64630        0.60730
H         -4.26040       -7.15040        0.29880
H         -3.60920       -4.81050        0.46510
