30

C         -0.32800       -1.08200        0.00300
N         -0.87960       -0.14780        0.79170
H         -1.59270       -0.29660        1.54110
C         -0.22530        0.99590        0.49740
Cl        -0.48010        2.51610        1.33450
C          0.66260        0.74550       -0.52580
Cl         1.62780        1.93160       -1.37700
N          0.62600       -0.57160       -0.80290
Ag        -0.94440       -3.14170        0.01670
Br        -3.17080       -2.48300       -1.13120
C          0.90380       -3.68850        0.96950
C          1.74640       -2.77060        1.46200
N         -1.54650       -5.15350        0.03000
C         -0.69070       -6.20880        0.26320
C         -1.10320       -7.55860        0.22550
C         -0.13180       -8.68670        0.46170
C         -2.43150       -7.85740       -0.05710
C         -3.30940       -6.81690       -0.28360
C         -2.86200       -5.49120       -0.23740
H          1.14330       -1.07280       -1.55690
H          1.30880       -4.65440        1.14070
H          1.56790       -1.70950        1.42350
H          2.67440       -3.08390        1.93330
H          0.34370       -6.11570        0.41080
H          0.89000       -8.30920        0.68620
H         -0.07000       -9.33330       -0.42810
H         -0.46480       -9.28810        1.33220
H         -2.76990       -8.88460       -0.09450
H         -4.34850       -7.03380       -0.50240
H         -3.62950       -4.78430       -0.40380
