67

C          2.32700        0.03400        0.00000
N          1.52510        1.12890        0.13560
C          1.92860        2.53820        0.21240
C          2.71890        3.00260       -1.03880
C          1.95740        2.86860       -2.37430
C          2.78960        3.43830       -3.53160
C          0.26100        0.64020        0.10190
C          0.30710       -0.72150       -0.05630
C         -0.85610       -1.49620       -0.12660
C         -2.09360       -0.84060       -0.03740
C         -2.14910        0.55740        0.09990
C         -0.96590        1.31700        0.16700
N          1.59060       -1.11570       -0.16470
C          2.05090       -2.49060       -0.49760
C          1.92000       -3.56800        0.57350
C          0.93580       -4.57030        0.49280
C          0.90910       -5.63570        1.40150
C          1.87840       -5.71320        2.40640
C          2.87520       -4.73830        2.49050
C          2.89110       -3.66160        1.58680
Ag         4.47690        0.05800        0.00140
Br         4.25470       -0.51320       -2.44190
C          4.12360        0.39220        2.05570
C          4.94300        0.91290        2.95830
N          6.57670        0.08150        0.00280
C          6.96150       -1.11870       -0.77660
C          6.96430        1.07970       -1.01900
C          7.35410        0.02050        1.22900
C          6.99000       -0.87100        2.26540
C          7.73700       -0.94910        3.45200
C          8.89170       -0.18640        3.60680
C          9.31510        0.64290        2.57250
C          8.56560        0.74620        1.39580
H          2.55230        2.70040        1.11300
H          1.03630        3.19260        0.29180
H          3.66830        2.43240       -1.10640
H          2.96470        4.07750       -0.89240
H          0.99550        3.42520       -2.33260
H          1.74000        1.79970       -2.58480
H          2.98580        4.52080       -3.37230
H          2.24590        3.32380       -4.49390
H          3.76170        2.90690       -3.61330
H         -0.82490       -2.56640       -0.24280
H         -3.00950       -1.41940       -0.07980
H         -3.11240        1.04880        0.15140
H         -1.02920        2.39040        0.26110
H          3.10320       -2.48190       -0.81560
H          1.46430       -2.80300       -1.38910
H          0.18600       -4.56120       -0.29130
H          0.14900       -6.40040        1.33410
H          1.88980       -6.56030        3.08780
H          3.64730       -4.82230        3.24280
H          3.68040       -2.92720        1.65550
H          3.12840        0.14230        2.41760
H          5.89030        1.32810        2.67120
H          4.62560        1.01050        3.98930
H          6.55330       -1.21760       -1.78830
H          6.64200       -2.03260       -0.22770
H          8.06960       -1.20840       -0.89950
H          6.09160        1.38700       -1.62500
H          7.87940        0.87870       -1.63430
H          7.19460        2.03760       -0.50740
H          6.10330       -1.48670        2.17200
H          7.41480       -1.60640        4.25120
H          9.46640       -0.25150        4.52180
H         10.23050        1.21000        2.68290
H          8.95900        1.39290        0.62740
