34

C         -0.29810       -1.18950        0.02320
N          0.73320       -0.26030       -0.12060
C          2.17370       -0.44100       -0.46440
C          0.16000        0.97020        0.19960
Cl         0.85530        2.62410        0.28990
C         -1.15750        0.79160        0.50920
Cl        -2.32340        2.05130        0.98530
N         -1.44820       -0.51900        0.41360
C         -2.79070       -1.04780        0.64590
Ag        -0.46110       -3.55870       -0.11950
Br        -1.27590       -3.52600        2.35610
C          0.18180       -3.55210       -2.07530
C          0.48420       -2.50450       -2.70930
N         -0.92350       -5.85690       -0.19250
C         -0.68850       -5.89650        0.86330
N          0.09140       -6.93390       -0.53280
C         -0.55170       -8.06230       -0.51720
C         -2.04580       -7.90440       -0.13810
C         -2.38890       -6.49720        0.05230
H          2.42790       -1.49810       -0.65070
H          2.87460       -0.09770        0.34970
H          2.49200        0.13780       -1.36530
H         -3.49970       -0.24110        0.91960
H         -2.78480       -1.76430        1.48050
H         -3.17470       -1.51360       -0.27750
H          0.10020       -4.55820       -2.58320
H          0.49990       -1.52620       -2.25280
H          0.78180       -2.51380       -3.74040
H         -0.24410       -6.90940        1.47640
H         -1.05870       -5.56540       -0.96710
H         -1.34130       -6.38110        1.84330
H          0.17490       -8.87850       -0.56280
H         -2.77920       -8.63270        0.15870
H         -3.18980       -5.71750        0.36900
