64

C          2.32700        0.03400        0.00000
N          1.51760        1.15210       -0.04590
C          1.83900        2.59900       -0.05940
C          2.57090        3.02710        1.20450
C          2.58210        3.03260       -1.32410
C          0.24480        0.66570       -0.03610
C          0.27650       -0.70350       -0.05900
C         -0.90090       -1.46990       -0.06020
C         -2.12730       -0.80210       -0.03730
C         -2.16880        0.60660       -0.03460
C         -0.98190        1.35730       -0.04120
N          1.55840       -1.11110       -0.05470
C          1.97670       -2.50660       -0.25770
C          2.45570       -3.13800        0.99780
C          1.56100       -3.49380        2.02080
C          2.04900       -4.06870        3.19700
C          3.42430       -4.27230        3.35510
C          4.30610       -3.93910        2.32300
C          3.81800       -3.39400        1.14530
Ag         4.47690        0.05800        0.00140
Br         4.47390        0.16980        2.58900
C          4.47930       -0.03480       -2.14660
C          3.38870       -0.23540       -2.89200
N          6.57670        0.08150        0.00280
C          6.75930       -1.26480       -0.60280
C          7.17750       -0.08690        1.34110
C          7.42510        0.86090       -0.92530
C          6.93590        1.74520       -1.92090
C          7.80610        2.38170       -2.82460
C          9.18980        2.19970       -2.73430
C          9.71170        1.40480       -1.74170
C          8.85990        0.74870       -0.85900
H          0.89700        3.17340       -0.06810
H          3.60370        2.63220        1.21200
H          2.01870        2.66360        2.09700
H          2.60680        4.13830        1.24990
H          3.60930        2.62220       -1.35020
H          2.64300        4.14470       -1.34600
H          2.02560        2.71080       -2.23090
H         -0.88710       -2.55150       -0.04760
H         -3.05280       -1.36570       -0.01560
H         -3.12540        1.11140       -0.02110
H         -1.06360        2.42950       -0.04190
H          2.72770       -2.53080       -1.07320
H          1.14320       -3.13480       -0.64600
H          0.49360       -3.34210        1.90430
H          1.36420       -4.35020        3.98630
H          3.80750       -4.69500        4.27120
H          5.36900       -4.10190        2.43100
H          4.48120       -3.14840        0.33850
H          5.37990       -0.03650       -2.74050
H          2.40200       -0.36720       -2.47990
H          3.49870       -0.35070       -3.96780
H          6.42230       -1.38660       -1.63750
H          7.81560       -1.61590       -0.64190
H          6.20690       -2.01870       -0.02480
H          6.65870       -0.86690        1.92880
H          7.25330        0.87860        1.87790
H          8.18130       -0.55680        1.34250
H          5.88930        1.95650       -2.03310
H          7.41490        3.01940       -3.60640
H          9.85690        2.69210       -3.43810
H         10.78680        1.27360       -1.65420
H          9.37450        0.13440       -0.14180
