58

C          2.32700        0.03400        0.00000
N          1.53350        1.13930        0.08650
C          1.96230        2.53570        0.26350
C          2.98000        3.01830       -0.78070
C          2.45570        3.04430       -2.22160
C          3.54070        3.57690       -3.16360
C          0.26760        0.66800        0.00340
C          0.30830       -0.70060       -0.08630
C         -0.86190       -1.47240       -0.08750
C         -2.09600       -0.80720       -0.04220
C         -2.14190        0.59840        0.00520
C         -0.95280        1.35250        0.03830
N          1.59620       -1.10910       -0.11520
C          2.04350       -2.50810       -0.00680
C          2.24960       -3.25560       -1.30230
C          3.48510       -3.89170       -1.50930
C          3.70290       -4.67370       -2.64520
C          2.69040       -4.82820       -3.59250
C          1.45670       -4.19890       -3.40480
C          1.23200       -3.41570       -2.26270
Ag         4.47690        0.05800        0.00140
Br         4.35070        0.08960       -2.48700
C          4.34520        0.01770        2.14360
C          3.23030       -0.05370        2.87570
N          6.57670        0.08150        0.00280
C          7.26470       -0.23900        1.15030
C          8.65060       -0.27390        1.21590
C          9.38640        0.12280        0.11420
F         10.73920        0.16040        0.19070
C          8.71890        0.46930       -1.05310
C          7.31420        0.37830       -1.11600
H          2.43970        2.62270        1.25700
H          1.08430        3.21900        0.25250
H          3.88580        2.38170       -0.71530
H          3.27250        4.05400       -0.50110
H          1.56510        3.70500       -2.29190
H          2.16010        2.02320       -2.54140
H          3.82750        4.61180       -2.87820
H          3.17120        3.58670       -4.20990
H          4.44980        2.94070       -3.11870
H         -0.83590       -2.55900       -0.12240
H         -3.01470       -1.38310       -0.05000
H         -3.10390        1.09550        0.03290
H         -1.00840        2.43280        0.09260
H          1.28150       -3.07100        0.57500
H          2.94520       -2.53410        0.63320
H          4.27490       -3.80630       -0.77430
H          4.65450       -5.17110       -2.78090
H          2.86100       -5.44370       -4.46670
H          0.67200       -4.33120       -4.13960
H          0.26050       -2.96050       -2.13560
H          5.19850        0.08240        2.78260
H          2.23800       -0.11330        2.46310
H          3.32010       -0.05230        3.96070
H          6.80260       -0.63780        2.01100
H          9.14230       -0.61340        2.11910
H          9.28900        0.81130       -1.90820
H          6.84730        0.68350       -2.03280
