62

P          0.95550       -0.08760       -0.01860
C         -0.01620        0.19600       -1.74710
C         -1.57040        0.21550       -1.84020
C          0.37620        1.54940       -2.42260
C          0.37710       -0.89770       -2.77050
C          0.56990       -1.99260        0.40500
C          1.25930       -3.00910       -0.54160
C          1.04220       -2.47010        1.80580
C         -0.93840       -2.35950        0.44610
C          0.19570        1.31120        1.12240
C         -1.35520        1.20090        1.23400
C          0.72610        1.16850        2.55900
C          0.47390        2.79170        0.75800
Ag         3.41550       -0.08760       -0.01860
Br         3.41550       -0.67500        2.50390
C          3.41550        0.40000       -2.11260
C          3.53210       -0.24170       -3.27970
N          5.51550       -0.08760       -0.01860
C          6.22880       -0.17640       -1.19200
C          7.62710       -0.28600       -1.20250
C          8.33510       -0.23330        0.00250
O          9.68170       -0.33940        0.07220
C         10.50900       -0.74360       -0.94440
C          7.62010       -0.06530        1.17900
C          6.23060       -0.05240        1.15730
H         -2.04860        1.10050       -1.42960
H         -2.08730       -0.67870       -1.49840
H         -1.87010        0.29270       -2.91270
H         -0.04970        2.42320       -1.94240
H         -0.03820        1.62710       -3.45240
H          1.43100        1.73790       -2.54890
H         -0.24810       -1.79720       -2.65400
H          1.42260       -1.18990       -2.70500
H          0.17400       -0.59340       -3.82300
H          2.35420       -2.83310       -0.58290
H          0.86820       -3.06360       -1.55640
H          1.09190       -4.04990       -0.18360
H          2.12530       -2.65980        1.82660
H          0.66960       -3.48280        2.05670
H          0.68120       -1.84050        2.63440
H         -1.43030       -2.28540       -0.52070
H         -1.48770       -1.83680        1.24690
H         -1.08890       -3.42950        0.70340
H         -1.72700        0.17760        1.29330
H         -1.87620        1.72530        0.42970
H         -1.75930        1.73120        2.12130
H          0.53030        0.17940        2.98330
H          0.21470        1.88200        3.24540
H          1.79650        1.43130        2.59810
H         -0.07530        3.15430       -0.11280
H          1.55200        3.01280        0.66740
H          0.04720        3.45510        1.54880
H          3.42090        1.48010       -2.19260
H          3.62250       -1.31140       -3.38020
H          3.54780        0.37790       -4.18050
H          5.75060       -0.26120       -2.14210
H          8.12660       -0.43580       -2.14900
H         11.55520       -0.72990       -0.58300
H         10.42950       -0.05630       -1.81010
H         10.25110       -1.77940       -1.25430
H          8.14070        0.00230        2.12760
H          5.75610        0.09130        2.10610
