25

N         -1.39000       -0.11200       -0.05400
C         -0.83520       -0.43190        1.14750
C          0.54570       -0.33210        1.33300
F          1.10930       -0.71340        2.50550
C          1.33640        0.17550        0.30060
C          0.74400        0.54040       -0.91030
C         -0.63170        0.35780       -1.08180
Ag        -3.47560       -0.20170       -0.28210
Br        -3.24880       -2.50150       -1.45160
C         -3.66390        1.70730        0.68870
C         -2.64580        2.44740        1.13130
C         -5.61100       -0.29360       -0.51560
N         -6.24170       -1.26380       -1.20480
C         -7.54430       -0.94800       -1.10410
C         -7.65570        0.20240       -0.35870
O         -6.45370        0.58170       -0.01050
H         -1.46390       -0.81300        1.94150
H          2.40320        0.29320        0.44110
H          1.34350        0.96790       -1.70370
H         -1.10760        0.66300       -2.00420
H         -4.66320        2.10200        0.83020
H         -1.61640        2.14010        1.03270
H         -2.84970        3.40030        1.61050
H         -8.35120       -1.51530       -1.54580
H         -8.57280        0.72020       -0.09800
