42

P          1.01050       -0.00680        0.09920
O         -0.37960        0.97630       -0.08330
C         -0.11930        2.19670        0.61260
O          0.66640       -1.10040       -1.16930
C          0.66530       -0.44110       -2.41120
O          0.68240       -0.37220        1.74670
C         -0.68040       -0.76680        1.87570
Ag         3.47050       -0.00680        0.09920
Br         3.47050       -2.55020        0.58830
C          3.47050        2.10450       -0.30670
C          3.35850        3.06530        0.61120
N          5.57050       -0.00680        0.09920
C          6.38640       -1.06410       -0.30140
N          5.89830       -2.09450       -1.21200
C          4.79150       -1.79440       -2.11750
C          6.74850       -3.20790       -1.59840
C          7.78720       -0.97530       -0.09420
C          8.34440        0.16660        0.45490
C          7.53240        1.23960        0.76440
C          6.16070        1.14280        0.55910
H         -0.46360        3.06870        0.02340
H          0.94590        2.41180        0.82830
H         -0.62420        2.20450        1.59930
H         -0.02760       -0.99500       -3.08080
H          1.67920       -0.47080       -2.85730
H          0.26910        0.59670       -2.38410
H         -0.84410       -1.23190        2.86480
H         -0.99630       -1.50110        1.10040
H         -1.37480        0.10360        1.86400
H          3.56940        2.39030       -1.34880
H          3.25690        2.82580        1.66220
H          3.36960        4.10550        0.29540
H          4.41760       -0.75530       -2.01410
H          5.13570       -1.88300       -3.17580
H          3.96580       -2.52180       -2.01050
H          7.66700       -2.83160       -2.10730
H          6.24890       -3.84980       -2.36360
H          7.01280       -3.82970       -0.72420
H          8.47990       -1.73960       -0.41090
H          9.41570        0.24230        0.60430
H          7.95390        2.14360        1.18440
H          5.58880        1.97940        0.89090
