32

N         -1.43920       -0.11760        0.00790
C         -0.81420        1.10540       -0.10320
C          0.59020        1.18300       -0.14050
Cl         1.40210        2.70460       -0.46630
C          1.35170        0.02760        0.03020
C          0.70990       -1.19020        0.22350
C         -0.68900       -1.24560        0.15160
Ag        -3.47560       -0.20170       -0.28210
Br        -3.76620        1.36870        1.75690
C         -3.23450       -1.50540       -1.97470
C         -2.07340       -1.91970       -2.49810
N         -5.51090       -0.34820       -0.50980
C         -6.09070       -1.55520       -0.82310
C         -7.46850       -1.65580       -1.05100
C         -8.24330       -0.49600       -1.09560
C         -9.68730       -0.56270       -1.51880
C         -7.64100        0.72860       -0.77820
C         -6.27520        0.77130       -0.44490
H         -1.39960        1.99480       -0.27220
H          2.43600        0.07220        0.00790
H          1.29680       -2.08490        0.39640
H         -1.17550       -2.20670        0.27480
H         -4.12640       -1.86550       -2.47090
H         -1.10990       -1.62270       -2.13840
H         -2.05880       -2.59270       -3.34640
H         -5.50840       -2.46640       -0.78760
H         -7.92200       -2.62600       -1.22510
H        -10.00040       -1.60650       -1.74290
H         -9.80970        0.02040       -2.45840
H        -10.36210       -0.14580       -0.74470
H         -8.21670        1.64550       -0.82110
H         -5.81000        1.72950       -0.26240
