27

N         -1.39000       -0.11200       -0.05400
C         -0.71120        0.95070       -0.57020
C          0.67350        1.04140       -0.41680
C          1.35940       -0.01370        0.18580
C          0.66100       -1.11290        0.66700
C         -0.74320       -1.12180        0.58760
Ag        -3.47560       -0.20170       -0.28210
Br        -3.77420        0.35260        2.23020
C         -3.22780       -0.66190       -2.36760
C         -2.03110       -0.80460       -2.94730
O         -5.51160       -0.28930       -0.50470
C         -6.22040       -0.55690       -1.59960
C         -7.56700       -0.51570       -1.31640
C         -7.67330       -0.18700        0.00560
C         -6.38500       -0.07320        0.47070
H         -1.25870        1.76120       -1.03190
H          1.20850        1.91510       -0.76720
H          2.43800        0.02120        0.27390
H          1.17960       -1.95630        1.10490
H         -1.30510       -1.97840        0.94090
H         -4.01810       -0.80800       -3.06330
H         -1.09940       -0.71490       -2.41810
H         -1.96780       -1.03530       -4.00660
H         -5.90360       -0.81250       -2.57720
H         -8.37740       -0.71010       -2.00790
H         -8.58620       -0.04780        0.56230
H         -6.18710        0.19300        1.48700
