32

N         -0.65900       -1.22800       -0.05100
C         -1.41310       -0.09080        0.02330
Cl        -3.16150       -0.18060        0.13560
C         -0.79540        1.16120        0.10300
C          0.59550        1.24310        0.06000
C          1.35320        0.07760       -0.04020
C          0.70380       -1.15800       -0.08260
Ag        -1.57560       -3.10440       -0.27260
Br        -2.83340       -2.24270       -2.36630
C         -0.53160       -3.81960        1.46550
C          0.21300       -3.07340        2.28880
N         -2.49230       -4.98070       -0.49410
C         -1.87660       -6.13800       -0.09360
N         -2.44360       -7.34850       -0.32540
C         -3.64480       -7.46490       -0.94350
O         -4.18850       -8.68000       -1.19420
C         -3.55340       -9.87430       -0.92280
C         -4.30820       -6.31550       -1.34740
C         -3.70600       -5.07860       -1.11930
H         -1.38850        2.06220        0.19660
H          1.08410        2.20780        0.10260
H          2.43280        0.13040       -0.09340
H          1.28580       -2.06410       -0.18770
H         -0.60360       -4.83960        1.79030
H          0.36300       -2.01570        2.17120
H          0.68390       -3.53560        3.15140
H         -0.88910       -6.14960        0.31340
H         -4.20400      -10.71750       -1.23400
H         -3.34650       -9.96060        0.16440
H         -2.59920       -9.93700       -1.49030
H         -5.26660       -6.37520       -1.84680
H         -4.24300       -4.20670       -1.44050
