52

N         -0.65900       -1.22800       -0.05100
C         -1.17740        0.00910       -0.43490
Cl        -2.62480        0.29070       -1.38960
C         -0.43680        1.18980       -0.27260
C          0.82420        1.15590        0.28960
C          1.34950       -0.05920        0.68110
C          0.60580       -1.22600        0.49790
Ag        -1.57560       -3.10440       -0.27260
Br        -3.90480       -1.99120       -0.06300
C          0.35790       -4.02840       -0.44650
C          0.88940       -5.20700       -0.11830
P         -2.64940       -5.30240       -0.53210
C         -4.07630       -6.00610        0.46410
C         -5.47640       -5.78400        0.33250
C         -6.39670       -6.32760        1.24350
C         -5.96810       -7.12020        2.30220
C         -4.61080       -7.31380        2.49640
C         -3.69200       -6.72680        1.62450
C         -3.82190       -4.99930       -1.99150
C         -3.62060       -5.87880       -3.09050
C         -4.33740       -5.78480       -4.28560
C         -5.30220       -4.80430       -4.44380
C         -5.57440       -3.94880       -3.38990
C         -4.86440       -4.05190       -2.19020
C         -1.49290       -6.72360       -0.90530
C         -0.68020       -6.57600       -2.05630
C          0.23400       -7.56160       -2.42530
C          0.34350       -8.71970       -1.67130
C         -0.48400       -8.88750       -0.56680
O         -0.39910       -9.91030        0.09640
N         -1.39290       -7.91310       -0.21560
H         -0.82710        2.14040       -0.61810
H          1.39690        2.06740        0.40460
H          2.33540       -0.10150        1.12590
H          1.06650       -2.12180        0.86770
H          1.09010       -3.34800       -0.86620
H          0.36960       -5.99410        0.39060
H          1.94330       -5.37390       -0.33770
H         -5.92530       -5.18140       -0.41360
H         -7.45390       -6.12610        1.13130
H         -6.68220       -7.55420        2.99240
H         -4.26430       -7.90130        3.33930
H         -2.65750       -6.83960        1.89660
H         -2.90800       -6.67730       -3.05870
H         -4.13760       -6.47740       -5.09330
H         -5.85220       -4.71990       -5.37170
H         -6.34840       -3.19870       -3.49580
H         -5.22220       -3.38590       -1.46830
H         -0.73920       -5.67620       -2.65490
H          0.86020       -7.42670       -3.30870
H          1.06280       -9.48700       -1.94540
H         -1.97110       -8.15710        0.59630
