26

N         -1.45300       -0.06720       -0.04860
C         -0.70890        0.77070       -0.83060
C          0.69440        0.76350       -0.74150
F          1.44330        1.53980       -1.56340
C          1.32220       -0.06880        0.18670
C          0.54850       -0.88060        1.01250
C         -0.84460       -0.88050        0.86480
Ag        -3.47560       -0.20170       -0.28210
Br        -3.75190        1.63690        1.52110
C         -3.24630       -1.72800       -1.77890
C         -2.06250       -2.13170       -2.24630
N         -5.53180       -0.28140       -0.50020
C         -6.30300       -1.16310       -1.18590
O         -7.57990       -0.87740       -1.09500
C         -7.69050        0.19090       -0.35170
C         -6.42860        0.57750        0.03120
H         -1.19230        1.39990       -1.56340
H          2.40470       -0.08970        0.26490
H          1.02880       -1.51720        1.74750
H         -1.44200       -1.52180        1.49740
H         -4.06430       -2.28670       -2.17620
H         -1.12530       -1.72190       -1.90370
H         -2.02720       -2.94460       -2.96840
H         -5.98290       -2.01530       -1.74030
H         -8.62350        0.67240       -0.09930
H         -6.21900        1.43500        0.64300
