29

N         -1.38880        0.06390       -0.11030
C         -0.81380        1.17550        0.46430
C          0.58330        1.32660        0.55510
Cl         1.28930        2.71550        1.36460
C          1.41890        0.36470       -0.00160
C          0.84870       -0.71810       -0.64300
C         -0.54190       -0.84170       -0.67330
Ag        -3.47560       -0.20170       -0.28210
Br        -3.58850        2.38580       -0.26780
C         -3.38190       -2.34970       -0.29390
C         -2.44300       -3.32150       -0.37720
N         -5.65160       -0.33950       -0.42980
C         -6.49280       -1.46060       -0.58610
F         -6.17030       -2.75690       -0.60210
C         -7.86980       -1.36980       -0.82560
C         -8.48080       -0.15450       -0.93790
C         -7.71670        0.97320       -0.76520
C         -6.34870        0.86040       -0.49690
H         -1.40000        1.93630        0.94080
H          2.49870        0.47350        0.03940
H          1.48520       -1.43740       -1.14770
H         -0.92430       -1.59790       -1.30980
H         -4.25360       -2.84380       -0.18970
H         -1.38280       -3.28480       -0.49960
H         -2.77260       -4.35980       -0.36290
H         -8.45680       -2.27160       -0.95690
H         -9.53710       -0.09390       -1.16560
H         -8.18460        1.94410       -0.86860
H         -5.91080        1.81280       -0.42220
