29

N         -1.45040        0.01080       -0.05400
C         -0.85940        1.14390        0.27700
C          0.53940        1.26180        0.36210
F          1.10980        2.41600        0.78980
C          1.34580        0.18440        0.00040
C          0.75110       -1.00800       -0.40320
C         -0.65120       -1.11530       -0.39880
Ag        -3.47560       -0.20170       -0.28210
Br        -3.37010        1.72800       -2.00630
C         -3.56320       -1.80370        1.14920
C         -2.52990       -2.27370        1.85570
N         -5.46810       -0.23050       -0.47150
C         -6.13190       -1.49700       -0.60120
C         -7.50240       -1.56730       -0.93700
C         -8.25390       -0.40030       -1.03380
F         -9.57440       -0.45880       -1.34450
C         -7.63480        0.82800       -0.82840
C         -6.24380        0.86850       -0.61640
H         -1.47760        1.97980        0.56240
H          2.42740        0.27590        0.02310
H          1.37510       -1.83420       -0.72670
H         -1.09820       -2.03190       -0.76280
H         -4.50040       -2.32320        1.29330
H         -1.52840       -1.88870        1.77230
H         -2.67320       -3.12690        2.51200
H         -5.57600       -2.40830       -0.57840
H         -7.96610       -2.52320       -1.15080
H         -8.22290        1.73900       -0.85550
H         -5.77560        1.83260       -0.47940
