86

N         -1.39000       -0.11200       -0.05400
C         -0.74330        1.09440       -0.14260
C          0.65380        1.18690       -0.16720
C          1.33710        2.50990       -0.38620
C          1.40350        0.02140       -0.03070
C          0.75190       -1.20580        0.07410
C         -0.64820       -1.25650        0.02190
Ag        -3.47560       -0.20170       -0.28210
Br        -3.18840       -1.84770       -2.26100
C         -3.71410        1.16460        1.36070
C         -2.76820        1.68110        2.14970
C         -5.61100       -0.29360       -0.51560
N         -6.36110       -1.49740       -0.85420
C         -6.25160       -3.02760       -0.98320
C         -5.56830       -3.84610       -0.01030
C         -4.97270       -3.33440        1.25640
C         -3.65990       -2.71880        0.91590
C         -6.03170       -2.50490        2.00380
C         -5.51090       -5.25570       -0.05960
C         -6.17990       -5.97730       -0.98550
C         -6.94820       -5.31760       -1.88370
C         -7.03030       -3.89250       -1.96060
C         -7.98480       -3.49540       -3.10460
C         -7.52280       -4.13200       -4.45540
C         -9.43530       -3.99170       -2.83030
C         -7.62680       -1.04740       -0.89510
C         -7.68380        0.28340       -0.65290
N         -6.44540        0.83880       -0.49680
C         -6.24960        2.35110       -0.42190
C         -7.28490        3.29210        0.10270
C         -8.72640        2.96090        0.55610
C         -9.34250        3.92550        1.62200
C         -9.68210        3.02680       -0.66240
C         -7.01090        4.68100        0.19130
C         -5.81280        5.21850       -0.10800
C         -4.84430        4.42850       -0.62140
C         -5.01750        3.05120       -0.90480
C         -3.84670        2.58270       -1.82710
C         -4.07750        1.35050       -2.67600
C         -3.45250        3.63430       -2.92740
H         -1.28670        2.00280       -0.24360
H          0.60460        3.33450       -0.52810
H          1.94740        2.45090       -1.31530
H          1.99980        2.76080        0.46500
H          2.48630        0.06490       -0.03130
H          1.33240       -2.11360        0.16640
H         -1.13010       -2.21700        0.06320
H         -4.73320        1.45060        1.58990
H         -1.72180        1.45210        2.06310
H         -3.05720        2.35840        2.94730
H         -4.72170       -4.16810        1.94550
H         -3.93380       -1.98570        0.21510
H         -3.03170       -3.45590        0.36090
H         -3.11140       -2.28090        1.76390
H         -6.09630       -1.46280        1.65670
H         -5.83920       -2.50710        3.09040
H         -7.03940       -2.96440        1.85130
H         -4.96810       -5.84000        0.67130
H         -6.14120       -7.06290       -0.97290
H         -7.50030       -5.98920       -2.52810
H         -8.00330       -2.39750       -3.21410
H         -7.55820       -5.24660       -4.46300
H         -6.47690       -3.85330       -4.68490
H         -8.18700       -3.84350       -5.29400
H         -9.51830       -5.10510       -2.80460
H        -10.12560       -3.65980       -3.63540
H         -9.81880       -3.61600       -1.86130
H         -8.50290       -1.67780       -1.02330
H         -8.61830        0.74640       -0.64640
H         -8.70400        1.98860        1.08480
H         -9.58140        4.93480        1.21160
H         -8.66890        4.04790        2.49620
H        -10.32110        3.54590        1.97370
H         -9.70810        4.05660       -1.07790
H        -10.70990        2.74020       -0.35560
H         -9.38960        2.39550       -1.51960
H         -7.71540        5.42500        0.51360
H         -5.64170        6.28750        0.00360
H         -3.95620        4.98420       -0.84990
H         -2.97400        2.46460       -1.19880
H         -4.95340        1.46450       -3.34170
H         -4.19580        0.49890       -2.08940
H         -3.16480        1.11780       -3.27060
H         -4.33290        3.87290       -3.56080
H         -2.63460        3.25490       -3.57690
H         -3.01430        4.58260       -2.56780
