56

P          1.06660       -0.03010        0.06830
O         -0.26940        0.97900       -0.33100
C         -0.07630        2.25970        0.28250
O          0.63280       -1.30710       -0.99190
C          0.76000       -0.93080       -2.33500
O          0.63490       -0.08890        1.73290
C         -0.74450       -0.45550        1.83030
Ag         3.52660       -0.03010        0.06830
Br         2.72770       -2.29940        0.73770
C          2.94740        1.81220       -0.70560
C          2.77960        2.09530       -2.00510
C          5.67660       -0.03010        0.06830
N          6.56370        1.07170       -0.03640
C          6.56250        2.57850        0.02130
C          5.20380        3.16300        0.13350
C          7.31070        3.06750        1.30880
C          7.25110        3.21220       -1.21370
C          7.81180        0.53330        0.00020
C          7.75020       -0.78410        0.12550
N          6.45630       -1.19190        0.22100
C          6.14430       -2.63620        0.43260
C          7.40910       -3.55590        0.45330
C          5.55930       -2.79400        1.85370
C          5.27080       -3.17730       -0.73960
H         -0.19830        3.08010       -0.45510
H          0.89160        2.41980        0.79260
H         -0.78940        2.41330        1.11320
H          0.07720       -1.58380       -2.92180
H          1.79480       -1.12270       -2.68050
H          0.42960        0.10770       -2.54540
H         -1.00190       -0.70330        2.87500
H         -1.01120       -1.32640        1.19030
H         -1.43970        0.37870        1.58570
H          2.76530        2.62000       -0.01610
H          2.93560        1.36870       -2.79080
H          2.48590        3.10890       -2.28060
H          4.67970        2.64500        0.96840
H          4.82390        3.07910       -0.88520
H          5.19090        4.25280        0.32870
H          6.92080        2.55340        2.21420
H          7.17910        4.16470        1.46140
H          8.40800        2.90400        1.24790
H          6.76260        2.87370       -2.15290
H          8.32930        2.96730       -1.27440
H          7.17930        4.32600       -1.17030
H          8.74200        1.08340       -0.06240
H          8.62980       -1.40140        0.17840
H          8.10900       -3.27850        1.27230
H          7.96130       -3.49750       -0.51170
H          7.12610       -4.61900        0.61490
H          6.34150       -2.59340        2.61650
H          5.17970       -3.82770        2.01870
H          4.80380       -2.04070        2.10690
H          4.94920       -2.37390       -1.43580
H          4.43820       -3.81270       -0.39540
H          5.81630       -3.91350       -1.37090
