25

N         -1.39000       -0.11200       -0.05400
C         -0.85290        0.89830        0.68210
C          0.53370        1.01790        0.80240
C          1.35520        0.05890        0.20610
F          2.70280        0.14790        0.32790
C          0.78470       -0.98940       -0.51920
C         -0.60380       -1.04440       -0.66060
Ag        -3.47560       -0.20170       -0.28210
Br        -3.68330       -1.30630        2.05140
C         -3.30330        0.71510       -2.21910
C         -2.15200        1.06650       -2.79540
C         -5.61100       -0.29360       -0.51560
N         -6.45730       -0.59140        0.48970
C         -7.67350       -0.54390       -0.08070
C         -7.52420       -0.20710       -1.40600
O         -6.24280       -0.06810       -1.64560
H         -1.50170        1.64200        1.12530
H          0.96520        1.84790        1.34740
H          1.41060       -1.74750       -0.97080
H         -1.06180       -1.84860       -1.22140
H         -4.21680        0.91150       -2.76820
H         -1.19490        0.91760       -2.32140
H         -2.16370        1.52630       -3.77840
H         -8.60380       -0.73980        0.43540
H         -8.31180       -0.07680       -2.13590
