37

N         -1.40420       -0.08510       -0.04200
C         -0.77850        1.12860       -0.10110
C          0.62200        1.22840       -0.12080
C          1.38950        0.07570       -0.03440
C          0.75880       -1.15500        0.05720
C         -0.63500       -1.22310       -0.01040
Ag        -3.45590       -0.19080       -0.25390
Br        -3.41820        1.86300       -1.81290
C         -3.53070       -1.92410        1.02450
C         -2.68190       -2.19140        2.01140
N         -5.50970       -0.35160       -0.46070
C         -6.16810       -1.55100       -0.46250
C         -7.49820       -1.63810       -0.84800
C         -8.27270       -0.49230       -1.08300
N         -9.64960       -0.58260       -1.53140
C        -10.32520       -1.86120       -1.77340
C        -10.43520        0.60370       -1.85880
C         -7.61770        0.74190       -0.89120
C         -6.23590        0.77990       -0.69370
H         -1.35130        2.04930       -0.07770
H          1.12360        2.18360       -0.18200
H          2.46960        0.13270       -0.04430
H          1.34340       -2.05940        0.16080
H         -1.07770       -2.19280       -0.11240
H         -4.29880       -2.66720        0.94950
H         -1.89990       -1.54410        2.33390
H         -2.74200       -3.09090        2.60230
H         -5.68170       -2.48170       -0.36010
H         -7.85990       -2.63560       -0.96580
H         -9.73920       -2.76400       -1.57480
H        -10.61300       -1.95270       -2.84280
H        -11.22120       -1.94490       -1.12880
H         -9.92120        1.55780       -1.72220
H        -11.33160        0.64820       -1.21340
H        -10.72450        0.59280       -2.93080
H         -8.10810        1.69480       -0.91870
H         -5.77650        1.75940       -0.63390
