31

N         -0.65900       -1.22800       -0.05100
C         -1.00210       -0.38360        0.95680
F         -1.86710       -0.78670        1.91940
C         -0.36300        0.87140        1.05550
C          0.54470        1.26490        0.07540
C          0.84130        0.38570       -0.97900
C          0.26490       -0.88530       -0.98690
Ag        -1.57560       -3.10440       -0.27260
Br         0.64900       -4.26660        0.36630
C         -3.42240       -2.13960       -0.80290
C         -3.55040       -0.81580       -0.93640
N         -2.49230       -4.98070       -0.49410
C         -1.81650       -5.56980       -1.67830
C         -1.99590       -5.94070        0.53660
C         -3.95710       -5.06900       -0.63030
H         -0.57140        1.51050        1.91010
H          1.00470        2.22520        0.12370
H          1.50410        0.69470       -1.76570
H          0.47240       -1.56220       -1.80390
H         -4.33200       -2.66470       -1.01410
H         -2.73640       -0.12600       -0.80650
H         -4.50720       -0.39070       -1.22200
H         -0.70940       -5.55320       -1.61700
H         -2.06460       -4.95710       -2.57120
H         -2.16270       -6.60880       -1.89440
H         -0.93300       -6.23890        0.49420
H         -2.54020       -6.91200        0.48820
H         -2.19220       -5.51540        1.54330
H         -4.29590       -4.65270       -1.60090
H         -4.45170       -4.57590        0.23550
H         -4.30230       -6.12510       -0.65400
