47

P          0.97060        0.04590        0.08380
O         -0.26590       -1.14270        0.23710
C          0.10250       -2.17660       -0.69180
C         -0.64300       -3.48850       -0.47040
O          0.56090        1.05470        1.39910
C          0.58870        0.35270        2.61310
C         -0.07630        1.23690        3.66270
O          0.54580        0.47780       -1.53180
C         -0.85020        0.79910       -1.57500
C         -1.35940        0.84080       -3.00730
Ag         3.43060        0.04590        0.08380
Br         3.43060        2.60150       -0.33700
C          3.43060       -2.07550        0.43320
C          3.73920       -2.60100        1.61530
N          5.53060        0.04590        0.08380
C          6.17650       -1.08070       -0.34270
C          7.56880       -1.08320       -0.52640
O          8.21930       -2.06810       -1.20500
C          7.62400       -2.79880       -2.21950
C          8.31340       -0.00230       -0.06000
C          7.64730        1.12600        0.43390
C          6.24990        1.15380        0.42420
H          1.15130       -2.45810       -0.59820
H         -0.09950       -1.86970       -1.73540
H         -0.42690       -3.90020        0.53600
H         -0.27640       -4.22440       -1.22700
H         -1.73080       -3.35220       -0.61730
H          1.63890        0.15620        2.91560
H          0.00470       -0.59240        2.57450
H          0.45730        2.20900        3.73710
H         -0.06400        0.74080        4.65460
H         -1.13280        1.43750        3.37630
H         -1.05630        1.76390       -1.06730
H         -1.51130        0.02660       -1.13110
H         -0.87460        1.66130       -3.56770
H         -2.46160        1.00680       -2.99800
H         -1.16900       -0.13220       -3.51130
H          3.23210       -2.74230       -0.39710
H          3.98630       -1.96640        2.45700
H          3.76580       -3.68170        1.72820
H          5.61010       -1.90560       -0.71710
H          8.39880       -3.35930       -2.78190
H          7.13440       -2.11080       -2.95040
H          6.87010       -3.50740       -1.82120
H          9.39090        0.00090       -0.13010
H          8.21120        1.97650        0.78580
H          5.76060        2.03830        0.79830
