28

N          0.97620       -0.04450        0.08630
C          0.52030       -1.44730        0.10400
C          0.50420        0.66240        1.29330
C          0.35970        0.61000       -1.08920
Ag         3.07620       -0.04450        0.08630
Br         3.07620       -1.26950        2.36830
C          3.07620        0.97240       -1.80800
C          3.48710        0.46570       -2.96920
N          5.17620       -0.04450        0.08630
C          6.00680        0.50810       -0.82550
O          7.26790        0.29770       -0.52680
C          7.29750       -0.40860        0.58250
C          5.99720       -0.61230        0.98980
H         -0.58940       -1.51960        0.11290
H          0.88380       -1.98650        0.99930
H          0.91130       -1.98600       -0.78610
H         -0.60730        0.70120        1.33620
H          0.90250        1.69970        1.30570
H          0.83840        0.16690        2.22190
H         -0.76140        0.54980       -1.04650
H          0.66580        0.11310       -2.03460
H          0.60170        1.69170       -1.12200
H          2.71760        1.99600       -1.80080
H          3.87610       -0.54000       -3.04840
H          3.44500        1.09750       -3.85480
H          5.69700        1.07200       -1.69140
H          8.19030       -0.75410        1.07590
H          5.70450       -1.17040        1.86250
