42

N         -0.65900       -1.22800       -0.05100
C         -1.30480       -0.08270       -0.40110
O         -2.53500       -0.18520       -0.97950
C         -3.18870        0.85080       -1.64030
C         -0.64540        1.15460       -0.25160
C          0.64640        1.18340        0.25860
C          1.29340       -0.00390        0.59690
C          0.62300       -1.21290        0.40820
Ag        -1.57560       -3.10440       -0.27260
Br        -2.76290       -2.79370        2.00820
C         -0.59010       -3.36220       -2.16590
C          0.39610       -2.59870       -2.63820
N         -2.49230       -4.98070       -0.49410
C         -1.68980       -6.06580       -0.71650
C         -0.19950       -5.94640       -0.57800
C         -2.24550       -7.34580       -0.83420
C         -3.63170       -7.50730       -0.77680
C         -4.25790       -8.86250       -0.92130
C         -4.43790       -6.38600       -0.58490
C         -3.85350       -5.12090       -0.41570
C         -4.74960       -3.90850       -0.43940
H         -4.09360        0.44700       -2.13590
H         -2.53340        1.28350       -2.42280
H         -3.48330        1.63400       -0.91220
H         -1.10860        2.09050       -0.55360
H          1.16850        2.13430        0.38060
H          2.29550        0.01030        0.99860
H          1.10720       -2.13810        0.66920
H         -0.95090       -4.16950       -2.79530
H          0.79430       -1.75860       -2.09380
H          0.80810       -2.80820       -3.62040
H          0.10860       -4.91580       -0.31310
H          0.32810       -6.29780       -1.48410
H          0.11790       -6.56830        0.29090
H         -1.59890       -8.20970       -0.93940
H         -3.48970       -9.65940       -1.01590
H         -4.89960       -8.88140       -1.82670
H         -4.88080       -9.08200       -0.02900
H         -5.51680       -6.49600       -0.59280
H         -5.81000       -4.18580       -0.61650
H         -4.44330       -3.27600       -1.30520
H         -4.73330       -3.30020        0.46550
