108

C          1.02400       -0.65300       -0.05500
N          0.99660        0.69490       -0.12200
C          1.92210        1.88910       -0.31720
C          3.38510        1.87080       -0.52150
C          4.32980        0.74650       -0.34500
C          5.07870        0.53330       -1.66420
C          5.32620        1.10640        0.81510
C          4.09630        3.02850       -0.84230
C          3.56070        4.27670       -0.90990
C          2.25870        4.39220       -0.58640
C          1.41570        3.30300       -0.26650
C          0.09470        3.83220        0.35380
C          0.40220        3.98130        1.86200
C         -0.55430        5.07150       -0.29610
C         -0.39310        0.99750       -0.10000
C         -1.11990       -0.22730       -0.46580
N         -0.34940       -1.26710        0.14610
C         -0.96840       -2.62740        0.47940
C         -2.42120       -2.92740        0.42920
C         -3.56750       -1.89690        0.28400
C         -4.99730       -2.47380        0.24020
C         -3.58270       -0.92700        1.51530
C         -2.87960       -4.27670        0.61270
C         -2.06150       -5.31300        0.93210
C         -0.77630       -5.04660        1.18730
C         -0.23520       -3.76550        1.00470
C          1.08540       -3.66510        1.56710
C          1.01310       -3.65050        3.13130
C          2.06310       -4.71630        1.15010
Ag         2.78020       -1.86970       -0.29550
Br         3.20390       -1.76270        2.25740
C          2.42850       -1.95860       -2.41470
C          1.24750       -1.78040       -2.99370
P          4.78960       -3.26190       -0.57060
C          4.90940       -4.32460       -2.13230
C          5.99170       -4.42490       -3.05170
C          5.86610       -5.11380       -4.26790
C          4.69320       -5.78680       -4.58530
C          3.63560       -5.76880       -3.68910
C          3.73430       -5.03260       -2.50400
C          6.35840       -2.22660       -0.79050
C          7.17330       -1.85030        0.31590
C          8.35690       -1.11570        0.17030
C          8.79210       -0.72890       -1.08770
C          8.03520       -1.06600       -2.19930
C          6.83470       -1.79370       -2.06090
C          5.01640       -4.61150        0.68910
C          4.59640       -5.94910        0.45000
C          4.63080       -6.90290        1.47070
C          5.14350       -6.57420        2.71720
C          5.59920       -5.27720        2.93950
O          6.05940       -4.97630        4.02660
N          5.50670       -4.33560        1.94000
H          3.84600       -0.16460       -0.01550
H          5.37000        1.42260       -2.25220
H          4.52040       -0.12880       -2.35260
H          6.06470        0.23170       -1.36500
H          6.00810        1.95310        0.57970
H          5.99590        0.26720        1.05330
H          4.78130        1.36610        1.74610
H          5.17150        3.08380       -1.02090
H          4.17490        5.13370       -1.13100
H          1.97240        5.42170       -0.54100
H         -0.78610        3.22110        0.34800
H          1.27530        4.64810        2.03590
H         -0.47030        4.35380        2.43140
H          0.67650        2.97780        2.27110
H         -0.13220        6.03410        0.05250
H          0.06280        5.97730       -0.37380
H         -0.72740        4.86500       -1.37500
H         -0.67860        1.68600       -0.92620
H         -0.65900        1.25560        0.95440
H         -1.11670       -0.37420       -1.56480
H         -2.12030        0.01530       -0.17250
H         -3.45080       -1.40600       -0.69710
H         -5.24940       -2.97730        1.20760
H         -5.10970       -3.19720       -0.59310
H         -5.74150       -1.66870        0.08880
H         -3.84600       -1.46560        2.45060
H         -4.34520       -0.13410        1.34460
H         -2.62610       -0.42280        1.75770
H         -3.90020       -4.59780        0.55730
H         -2.43540       -6.32010        1.07990
H         -0.20220       -5.88460        1.56710
H          1.40390       -2.75930        1.12250
H          0.51210       -4.55110        3.53520
H          0.49680       -2.73540        3.48790
H          2.01930       -3.66590        3.61090
H          1.88080       -5.74220        1.51470
H          2.95900       -4.41170        1.68200
H          2.18180       -4.69470        0.06040
H          3.25830       -2.24730       -3.04990
H          0.37310       -1.58950       -2.41250
H          1.14320       -1.89200       -4.06760
H          6.94960       -3.97850       -2.90410
H          6.68590       -5.12060       -4.97510
H          4.60430       -6.32270       -5.52360
H          2.72440       -6.30660       -3.92580
H          2.85870       -5.02240       -1.88660
H          6.94220       -2.06830        1.32420
H          8.93950       -0.83820        1.04520
H          9.70550       -0.15170       -1.19210
H          8.36190       -0.73670       -3.17980
H          6.26620       -1.96200       -2.95930
H          4.15810       -6.27960       -0.46600
H          4.23250       -7.89590        1.30200
H          5.15730       -7.30980        3.51340
H          5.79720       -3.38690        2.20120
