61

P          0.97850       -0.08770       -0.04290
C         -0.19470        0.17800       -1.47880
C         -0.10730        1.55820       -2.14130
C         -0.82520        1.31250       -3.46740
C         -0.13090        0.05660       -3.94660
C          0.04160       -0.77780       -2.67690
C          0.44090       -1.88100        0.29240
C          0.83880       -3.05420       -0.62030
C          0.19980       -4.22200        0.13660
C          0.67660       -3.99010        1.54830
C          0.75770       -2.46070        1.67790
C          0.22160        1.18810        1.11300
C         -1.26660        0.91330        1.39810
C         -1.54730        1.83040        2.58430
C         -0.37660        1.52960        3.49120
C          0.79910        1.25370        2.53510
Ag         3.43850       -0.08770       -0.04290
Br         3.43850       -0.63690        2.48820
C          3.43850        0.36810       -2.14400
C          3.92000       -0.51450       -3.01350
O          5.48850       -0.08770       -0.04290
C          5.97140        0.83700        0.88300
C          7.49850        0.80360        0.83730
C          5.49350        2.21190        0.39540
H         -1.25380        0.04280       -1.18120
H          0.94740        1.82000       -2.36460
H         -0.54870        2.38050       -1.54490
H         -0.74790        2.14430       -4.20020
H         -1.89910        1.09370       -3.27490
H          0.88460        0.36840       -4.28580
H         -0.60700       -0.48560       -4.79470
H          1.06240       -1.21640       -2.72030
H         -0.73930       -1.56690       -2.63880
H         -0.67220       -1.84630        0.25160
H          1.94520       -3.16280       -0.65450
H          0.44520       -3.05630       -1.64510
H          0.44330       -5.23570       -0.25150
H         -0.91140       -4.10680        0.11590
H          1.71720       -4.39550        1.57570
H          0.10720       -4.50870        2.34940
H          1.79910       -2.32440        1.90120
H          0.13330       -2.01960        2.48330
H          0.30380        2.21190        0.68600
H         -1.39460       -0.14160        1.74540
H         -1.96070        1.10780        0.56840
H         -2.53090        1.64850        3.08120
H         -1.49090        2.87710        2.24450
H         -0.63010        0.56450        3.99570
H         -0.18520        2.26470        4.30430
H          1.13610        0.26830        2.87050
H          1.61540        2.00950        2.59150
H          3.06000        1.31740       -2.49530
H          4.31060       -1.46240       -2.66130
H          3.93330       -0.28580       -4.07430
H          5.64560        0.64560        1.92330
H          7.85500        0.96940       -0.20400
H          7.87000       -0.18190        1.18190
H          7.92900        1.60170        1.48320
H          5.83010        2.38450       -0.65460
H          5.88970        3.03840        1.02380
H          4.38360        2.26190        0.39600
