96

C          1.02400       -0.65300       -0.05500
N          0.85370        0.77260       -0.06140
C          1.80080        1.99480        0.06960
C          1.76040        3.42900       -0.33780
C          0.67760        4.23500       -1.00740
C          0.34830        3.74110       -2.40850
C         -0.43800        4.50080       -0.00830
C          2.90550        4.29600       -0.12300
C          4.05920        3.87810        0.49820
C          4.09380        2.61090        0.92960
C          2.99150        1.77450        0.69130
C          3.21200        0.50080        0.90590
C          3.73020        0.31940       -0.70650
C          3.15200        0.32430        2.50500
C         -0.54600        1.03690       -0.06560
C         -1.15450       -0.23160       -0.54890
N         -0.30520       -1.29290       -0.03810
C         -0.83270       -2.59970        0.50300
C         -0.11550       -3.86630        0.38280
C          1.13300       -4.11390       -0.38480
C          2.25060       -4.65210        0.52510
C          0.82080       -5.07120       -1.56280
C         -0.63230       -5.07520        0.89720
C         -1.84790       -5.15540        1.47420
C         -2.60770       -4.02950        1.57100
C         -2.16660       -2.74720        1.13910
C         -3.21090       -1.64500        1.40980
C         -4.30040       -1.66340        0.30960
C         -3.93610       -1.76700        2.77850
Ag         2.78020       -1.86970       -0.29550
Br         5.43740       -0.75390        1.08480
C          2.45260       -1.75030       -2.41950
C          1.25550       -1.83630       -3.01550
N          4.49560       -3.05820       -0.53040
C          5.27250       -3.34900        0.58510
C          6.50320       -4.00330        0.57080
C          6.89370       -4.69970       -0.52450
C          5.98740       -4.81510       -1.54770
C          6.20130       -5.90020       -2.40960
C          5.23940       -6.27020       -3.31740
C          4.10310       -5.48700       -3.47490
C          3.03630       -6.01130       -4.41170
O          3.05050       -7.19400       -4.72920
C          1.90810       -5.18530       -4.95790
C          3.92970       -4.32440       -2.67200
C          4.81860       -3.96350       -1.60520
H          1.03580        5.27390       -1.21170
H         -0.00510        2.70300       -2.44890
H          1.27570        3.79250       -3.02640
H         -0.39830        4.42230       -2.86300
H         -1.00350        3.61170        0.27900
H         -1.11770        5.27410       -0.41120
H          0.02320        4.91000        0.92450
H          2.95780        5.32830       -0.43920
H          4.92780        4.51830        0.63000
H          5.01030        2.22970        1.37860
H          2.88110       -0.46480        0.95010
H          4.48470        1.05730       -1.06610
H          2.91320        0.44180       -1.45270
H          4.20350       -0.61320       -1.05390
H          2.74320       -0.66800        2.88120
H          4.12830        0.38820        3.00320
H          2.49870        1.08400        2.99110
H         -0.85230        1.81830       -0.78900
H         -0.85140        1.30930        0.96110
H         -1.00150       -0.24640       -1.64380
H         -2.22080       -0.28630       -0.45220
H          1.41600       -3.20180       -0.83110
H          1.97960       -5.56940        1.07420
H          2.54030       -3.87310        1.26310
H          3.11230       -4.96350       -0.07550
H          0.51140       -6.08260       -1.25350
H          1.68890       -5.27770       -2.17350
H          0.04130       -4.62750       -2.22100
H         -0.11150       -6.02060        0.80680
H         -2.21170       -6.11580        1.81850
H         -3.57050       -4.21250        2.01210
H         -2.70070       -0.67080        1.49530
H         -4.83460       -2.63740        0.29930
H         -3.89020       -1.52770       -0.70880
H         -5.03970       -0.85700        0.49120
H         -4.61190       -2.64490        2.84420
H         -4.60700       -0.89740        2.92990
H         -3.20840       -1.81190        3.61520
H          3.32640       -1.69260       -3.06240
H          0.34230       -1.97280       -2.45550
H          1.18950       -1.83730       -4.09960
H          4.98480       -3.02270        1.57060
H          7.13050       -4.03450        1.45150
H          7.80580       -5.28680       -0.48480
H          7.05840       -6.55740       -2.29210
H          5.38010       -7.19040       -3.87670
H          2.01770       -4.11360       -4.72530
H          0.93420       -5.55530       -4.56970
H          1.90400       -5.28980       -6.06300
H          3.01920       -3.87610       -2.81430
