36

C          1.07690       -0.03710       -0.05200
O         -0.05110       -0.03690       -0.05200
Ag         3.22690       -0.03710       -0.05200
Br         3.13850       -1.95470       -1.63110
C          3.25970        1.50860        1.31560
C          3.27500        2.76790        0.88600
P          5.68690       -0.03710       -0.05200
C          7.14270        0.86420        0.56870
C          6.00980       -1.53840        0.91560
C          6.70110       -2.63730        0.37330
C          7.05780       -3.72230        1.17870
C          6.72070       -3.72640        2.53370
C          6.01840       -2.64880        3.07990
C          5.66820       -1.55680        2.28090
C          6.10550       -0.20170       -1.80800
C          5.20630        0.24480       -2.78170
C          5.53470        0.18110       -4.14180
C          6.77590       -0.32240       -4.54060
C          7.69340       -0.74900       -3.58110
C          7.36960       -0.68000       -2.22280
H          3.27120        1.29010        2.37720
H          3.26580        2.97640       -0.17860
H          3.29820        3.58880        1.59500
H          7.02740        1.00690        1.66580
H          7.12710        1.87890        0.11250
H          8.10410        0.36860        0.35370
H          6.99440       -2.67380       -0.65600
H          7.61820       -4.55130        0.76020
H          7.01250       -4.55750        3.15900
H          5.76170       -2.65680        4.13080
H          5.14810       -0.71890        2.72850
H          4.24900        0.66030       -2.49080
H          4.83250        0.53230       -4.88640
H          7.02980       -0.37120       -5.59270
H          8.66250       -1.12320       -3.88590
H          8.11330       -0.99190       -1.50670
