55

P          0.97950        0.09690       -0.01400
N         -0.07280        1.02950       -1.10590
C         -1.47590        1.16670       -0.74960
C          0.56000        2.33480       -1.37450
O          0.34940       -1.46090       -0.37720
C          0.34820       -1.73130       -1.76780
O          0.73240        1.09200        1.34660
C          1.04230        0.35060        2.49980
Ag         3.43950        0.09690       -0.01400
Br         3.35850        2.54920        0.41190
C          3.35990       -1.91910       -0.36300
C          3.35640       -2.78770        0.64300
P          5.89950        0.09690       -0.01400
N          6.74840       -0.91310        1.20660
C          8.20890       -0.99050        1.25270
C          6.13170       -0.80930        2.52860
N          6.53240       -1.03400       -1.24640
C          6.14530       -2.44670       -1.26040
C          6.62960       -0.42270       -2.57470
N          6.39250        1.77370        0.39410
C          6.15710        2.22070        1.77570
C          7.74420        2.13730       -0.05350
H         -1.93750        0.16750       -0.65290
H         -1.99790        1.68130       -1.59430
H         -1.60450        1.78130        0.16270
H          1.59790        2.19110       -1.75400
H          0.58950        2.96990       -0.46030
H          0.02580        2.89250       -2.17100
H         -0.51380       -2.39320       -1.98920
H          1.25310       -2.28250       -2.06360
H          0.22260       -0.85940       -2.43920
H          1.37270        1.06200        3.28460
H          1.89400       -0.35640        2.37000
H          0.13670       -0.17840        2.86360
H          3.29070       -2.27680       -1.37890
H          3.41530       -2.45670        1.66920
H          3.31980       -3.85980        0.44930
H          8.62460       -1.23470        0.25970
H          8.48300       -1.82810        1.93280
H          8.65230       -0.08590        1.69470
H          5.02840       -0.65700        2.46560
H          6.57010        0.00670        3.14160
H          6.29000       -1.74400        3.10550
H          5.96450       -2.83950       -0.24100
H          6.98660       -3.03640       -1.68290
H          5.29840       -2.62180       -1.94510
H          7.51760        0.24060       -2.60360
H          5.71870        0.16280       -2.81440
H          6.79330       -1.18680       -3.36510
H          5.24670        1.76290        2.21020
H          5.99960        3.32170        1.77070
H          7.02830        2.02220        2.43180
H          7.90710        1.85560       -1.10640
H          8.52870        1.68600        0.57580
H          7.87650        3.23880        0.02150
