47

P          0.93770       -0.03290        0.07100
N         -0.09750       -0.30100       -1.37200
C         -1.50240       -0.69560       -1.36860
C          0.37830        0.29430       -2.63640
N          0.33030       -1.40090        1.03620
C          0.89820       -2.68520        0.63600
C          0.49980       -1.17880        2.47730
N          0.55950        1.69030        0.39000
C          0.91410        2.63170       -0.68130
C         -0.84270        1.89030        0.79310
Ag         3.39770       -0.03290        0.07100
Br         3.39770        0.75630        2.53780
C          3.39770       -0.68800       -1.97680
C          2.91800       -1.86940       -2.35260
N          5.49770       -0.03290        0.07100
C          5.54290       -1.18920        0.99780
N          6.20300       -0.25770       -1.08170
C          7.34270        0.34880       -1.03480
C          7.45030        1.10720        0.13370
C          6.25900        0.90580        0.80900
H         -1.72710       -1.38360       -0.53640
H         -1.71420       -1.24160       -2.31810
H         -2.16310        0.18860       -1.37880
H          1.38220        0.74880       -2.54080
H         -0.31490        1.08080       -2.99660
H          0.45610       -0.48370       -3.42500
H          0.64370       -2.89680       -0.42040
H          0.43290       -3.49860        1.23720
H          1.99670       -2.70360        0.80030
H          0.01540       -0.23570        2.79700
H          1.56440       -1.17130        2.76200
H          0.00600       -1.99260        3.04980
H          1.92710        2.42860       -1.08040
H          0.91580        3.66470       -0.27330
H          0.15740        2.63880       -1.49390
H         -1.12240        1.22920        1.63340
H         -1.54260        1.72190       -0.04250
H         -0.99920        2.93600        1.13100
H          3.79890       -0.01440       -2.72710
H          2.51220       -2.55430       -1.62680
H          2.92990       -2.15020       -3.40100
H          6.07980       -2.04750        0.53620
H          6.01160       -1.04850        2.00800
H          4.51480       -1.55000        1.20050
H          8.09000        0.26680       -1.80890
H          8.27360        1.71630        0.44830
H          5.99580        1.35930        1.75870
