81

P          1.06990        0.02990        0.06500
N          0.00060       -0.62760       -1.22350
C         -1.39430       -1.02630       -1.10030
C          0.43180       -0.39140       -2.61500
N          0.47230       -1.01420        1.38280
C          1.02350       -2.36710        1.34760
C          0.64360       -0.40560        2.70970
N          0.68800        1.77770       -0.11800
C          1.04220        2.40080       -1.40420
C         -0.71510        2.07800        0.20880
Ag         3.52990        0.02990        0.06500
Br         3.52990        1.46770        2.21930
C          3.52990       -1.16360       -1.72330
C          3.58150       -0.53230       -2.89760
P          5.98990        0.02990        0.06500
C          7.02920       -0.16630        1.71820
C          6.64220       -1.56240        2.28030
C          8.58980       -0.10790        1.74040
C          6.62760        0.83440        2.81350
C          6.69600       -1.31020       -1.19240
C          6.42190       -0.95690       -2.68080
C          8.23390       -1.45000       -1.16990
C          6.17250       -2.75310       -0.90920
C          6.35350        1.76970       -0.26330
C          5.34690        2.70340       -0.50320
C          5.66780        4.00450       -0.92450
C          7.00100        4.41690       -1.11920
N          7.35880        5.76210       -1.59960
C          6.35660        6.75160       -1.98170
C          8.72770        6.21370       -1.80160
C          8.00880        3.45280       -0.86390
C          7.68030        2.16720       -0.46200
H         -1.60150       -1.49880       -0.12630
H         -1.61090       -1.78550       -1.88970
H         -2.06120       -0.17860       -1.32370
H          1.33420        0.21570       -2.66060
H         -0.33530        0.17230       -3.18190
H          0.64670       -1.35280       -3.13050
H          0.79490       -2.85020        0.37710
H          0.52380       -2.98220        2.13430
H          2.11570       -2.36240        1.54110
H          0.10070        0.55770        2.77950
H          1.70580       -0.26680        2.95760
H          0.21690       -1.06280        3.49770
H          2.06470        2.12070       -1.72470
H          1.02410        3.50570       -1.29530
H          0.29520        2.17710       -2.19850
H         -0.99050        1.67060        1.19780
H         -1.41270        1.68790       -0.55260
H         -0.87450        3.17670        0.24510
H          3.33190       -2.22810       -1.70320
H          3.72340        0.54200       -2.93220
H          3.49870       -1.09270       -3.82480
H          7.14990       -2.37200        1.74190
H          5.53900       -1.72210        2.24030
H          6.95580       -1.70330        3.33640
H          9.13460       -0.84640        1.16270
H          8.94630       -0.36040        2.76580
H          9.00700        0.88960        1.54700
H          5.62720        0.63580        3.18620
H          6.79000        1.88230        2.49390
H          7.21920        0.66920        3.74270
H          6.37310        0.13530       -2.86830
H          5.62630       -1.57800       -3.10230
H          7.18790       -1.34850       -3.38540
H          8.75110       -0.48370       -1.30980
H          8.59630       -2.12300       -1.98110
H          8.56520       -2.02700       -0.30000
H          5.09340       -2.81040       -0.75980
H          6.58400       -3.21970       -0.00900
H          6.44560       -3.44580       -1.73500
H          4.30830        2.41330       -0.41720
H          4.81500        4.63780       -1.10590
H          5.31320        6.44430       -1.87690
H          6.50020        7.02170       -3.05500
H          6.49920        7.66390       -1.37180
H          9.52840        5.50560       -1.53390
H          8.91520        7.12400       -1.19730
H          8.89020        6.47090       -2.87330
H          9.05860        3.62760       -0.99220
H          8.48950        1.47330       -0.36710
