78

P          1.06430       -0.02570       -0.07220
C          0.19020       -1.02210        1.17020
C         -0.74920       -2.02330        0.88630
C         -1.16430       -2.89650        1.91270
C         -0.63870       -2.78160        3.20650
C          0.27010       -1.76930        3.49800
C          0.66050       -0.88440        2.49500
C          0.75480        1.63840        0.57290
C          1.81130        2.48470        0.92430
C          1.56440        3.78130        1.38250
C          0.25200        4.24330        1.49800
C         -0.81340        3.40440        1.16090
C         -0.56480        2.10550        0.70210
C          0.46120       -0.25430       -1.76360
C         -0.17080        0.80420       -2.44100
C         -0.66520        0.62430       -3.73550
C         -0.53810       -0.61380       -4.36660
C          0.08790       -1.67320       -3.70330
C          0.58830       -1.49610       -2.40560
Ag         3.52430       -0.02570       -0.07220
Br         3.15200        1.59330       -1.92660
C          3.55300       -1.47130        1.48290
C          4.56070       -1.87520        2.26480
P          5.98430       -0.02570       -0.07220
C          7.19260       -1.25240        0.56370
C          6.87890       -2.57980        0.16630
C          7.68690       -3.65730        0.49220
C          8.80980       -3.45490        1.28600
C          9.10120       -2.16390        1.75680
C          8.29570       -1.05440        1.40070
C          6.39060       -0.10010       -1.91900
C          6.01050        0.89960       -2.82260
C          6.18620        0.75960       -4.21180
C          6.81750       -0.36340       -4.73520
C          7.30850       -1.32840       -3.87410
C          7.11050       -1.19420       -2.49970
C          6.34390        1.53690        0.79280
C          7.50590        2.33330        0.57150
C          8.62030        1.96740       -0.36770
C          7.65240        3.54790        1.26750
C          6.68690        3.97190        2.17840
C          5.56530        3.18540        2.41690
C          5.39740        1.98030        1.73110
H         -1.11770       -2.17140       -0.11600
H         -1.86330       -3.69410        1.70270
H         -0.91700       -3.48470        3.98380
H          0.70440       -1.68970        4.48930
H          1.41540       -0.14370        2.73800
H          2.82430        2.14990        0.82770
H          2.39230        4.42930        1.63980
H          0.06210        5.25070        1.84550
H         -1.83050        3.76430        1.24880
H         -1.40000        1.47010        0.43550
H         -0.28680        1.77230       -1.97670
H         -1.15100        1.44530       -4.24800
H         -0.92710       -0.75100       -5.36780
H          0.17870       -2.63300       -4.19550
H          1.06210       -2.32840       -1.90110
H          2.63220       -1.95990        1.70050
H          5.53760       -1.45200        2.25040
H          4.38900       -2.64410        3.01190
H          6.00850       -2.77720       -0.45430
H          7.44100       -4.64920        0.12120
H          9.43810       -4.29500        1.53070
H          9.96660       -2.02700        2.38590
H          8.54270       -0.07360        1.77050
H          5.56110        1.80380       -2.47900
H          5.82990        1.51700       -4.89650
H          6.94880       -0.49410       -5.80760
H          7.83210       -2.19490       -4.26770
H          7.54080       -2.00480       -1.96480
H          8.48270        0.98950       -0.85290
H          9.57180        1.92070        0.20530
H          8.71690        2.74690       -1.15320
H          8.52220        4.17390        1.10710
H          6.81390        4.90850        2.70510
H          4.82270        3.51410        3.13380
H          4.52380        1.38320        1.94140
