45

P          1.09930       -0.00590       -0.00990
F         -0.51400        0.28270        0.33080
F          1.09220        1.20200       -1.16890
F          0.80800       -1.60860       -0.39520
Au         3.55930       -0.00590       -0.00990
Br         3.53400       -1.89660       -1.62070
C          3.55820        1.52190        1.38930
C          3.54000        2.80560        1.04330
P          6.01930       -0.00590       -0.00990
C          7.24630        0.75870        1.09100
C          8.09780       -0.02860        1.88620
C          8.92670        0.57020        2.84310
C          8.92100        1.95690        3.01090
C          8.07810        2.74870        2.23050
C          7.23550        2.15440        1.28780
C          6.55130       -1.69060       -0.35870
C          7.29900       -2.00820       -1.50230
C          7.74430       -3.31930       -1.70560
C          7.44220       -4.31730       -0.77390
C          6.69230       -4.00710        0.36290
C          6.25010       -2.69800        0.57150
C          6.31370        1.13970       -1.38460
C          5.24680        1.74480       -2.05660
C          5.51430        2.61750       -3.11600
C          6.83040        2.88200       -3.49320
C          7.87210        2.27060       -2.80710
O          9.03280        2.47950       -3.12810
N          7.59890        1.40070       -1.77780
H          3.56850        1.25070        2.44040
H          3.52730        3.09710        0.00140
H          3.53730        3.57020        1.81480
H          8.09740       -1.10550        1.80920
H          9.56070       -0.04280        3.47070
H          9.55670        2.41720        3.75690
H          8.06110        3.82220        2.37110
H          6.56290        2.78770        0.72400
H          7.55380       -1.24950       -2.22770
H          8.33140       -3.56110       -2.58170
H          7.79260       -5.32960       -0.92990
H          6.46120       -4.77850        1.08680
H          5.68100       -2.46660        1.46380
H          4.22370        1.54180       -1.77550
H          4.69820        3.08820       -3.64470
H          7.03320        3.56190       -4.31690
H          8.39330        0.95090       -1.28250
