25

P          1.05920        0.04920        0.06390
F         -0.60130        0.22440       -0.05460
F          1.04100       -1.06150       -1.18860
F          0.90240       -0.40650        1.66600
Au         3.51920        0.04920        0.06390
Br         3.39780       -1.81180        1.72830
C          3.43880        1.35850       -1.55730
C          2.94370        2.58920       -1.53590
N          5.61920        0.04920        0.06390
C          6.27250        1.00180       -0.67470
N          7.62330        1.00720       -0.78160
C          8.37910        0.05520       -0.18900
O          9.72540        0.04450       -0.35800
C         10.41290        1.03740       -1.02440
C          7.75970       -0.92700        0.57560
C          6.36630       -0.89830        0.71320
H          3.84040        0.97410       -2.49290
H          2.53300        3.01000       -0.63080
H          2.96100        3.17290       -2.45440
H          5.75200        1.79540       -1.17180
H         11.48840        0.77470       -1.06720
H         10.30020        2.00270       -0.48460
H         10.03150        1.14840       -2.06250
H          8.34190       -1.71490        1.03690
H          5.92140       -1.69170        1.27900
