26

P          0.97570        0.01410        0.09600
F         -0.68390        0.21350        0.00730
F          0.95380       -0.87440       -1.32280
F          0.81510       -0.67080        1.61540
Au         3.43570        0.01410        0.09600
Br         3.11240       -2.25720        1.06660
C          3.44160        1.65280       -1.19790
C          2.54030        2.62720       -1.25700
C          5.58570        0.01410        0.09600
N          6.36500        1.11730       -0.10360
C          6.03850        2.54260       -0.14410
C          7.64350        0.70440       -0.09740
C          7.65920       -0.63710        0.12910
N          6.39490       -1.07430        0.27410
C          6.08580       -2.48600        0.46330
H          4.24410        1.66200       -1.93200
H          1.69900        2.66690       -0.58420
H          2.65510        3.39420       -2.01930
H          5.01130        2.75010        0.19110
H          6.27090        2.97440       -1.13790
H          6.64810        3.06800        0.62420
H          8.50910        1.34280       -0.20710
H          8.54900       -1.26390        0.18920
H          7.01010       -3.10360        0.40370
H          5.42780       -2.83340       -0.36830
H          5.66250       -2.66020        1.46280
