64

P          1.07820        0.03360        0.05260
C          0.16580        1.10130        1.22640
C         -1.20700        1.40710        1.21550
C         -1.73930        2.32640        2.14400
C         -0.90090        2.96050        3.09040
O         -1.35020        3.84730        4.01500
C         -2.64340        4.29400        4.15480
C          0.45540        2.67910        3.07850
C          0.97870        1.78490        2.15420
C          0.68780        0.76080       -1.55390
C          1.09730        2.06490       -1.85500
C          0.83270        2.60950       -3.11290
C          0.13960        1.86120       -4.08900
O         -0.11740        2.35130       -5.32830
C          0.23660        3.60340       -5.78080
C         -0.27760        0.56190       -3.77930
C         -0.01130        0.01410       -2.52000
C          0.35530       -1.58260        0.45100
C         -1.01260       -1.75780        0.16100
C         -1.62550       -2.99880        0.24880
C         -0.87720       -4.11890        0.63920
O         -1.43570       -5.37030        0.67130
C         -2.71900       -5.68970        0.26170
C          0.47380       -3.95250        0.95050
C          1.10350       -2.69550        0.85750
Au         3.53820        0.03360        0.05260
Br         3.53820       -0.40640        2.60490
C          3.53820        0.39880       -2.06620
C          3.11450       -0.55820       -2.89010
N          5.63820        0.03360        0.05260
C          6.35380       -0.30680        1.18290
C          7.74940       -0.28280        1.23010
C          8.46650        0.11750        0.11970
C          7.77930        0.45640       -1.03120
C          6.38250        0.38810       -1.05460
H         -1.87660        0.98880        0.49310
H         -2.79470        2.55160        2.10900
H         -2.68860        4.98910        5.01880
H         -3.32270        3.43880        4.35180
H         -2.95610        4.84200        3.24210
H          1.12220        3.17090        3.77780
H          2.04000        1.65180        2.15930
H          1.64640        2.65040       -1.12510
H          1.17810        3.61150       -3.31790
H         -0.10560        3.73000       -6.82430
H          1.34320        3.72410       -5.75190
H         -0.24590        4.38120       -5.15040
H         -0.80830       -0.02820       -4.51740
H         -0.32940       -0.99670       -2.31990
H         -1.61300       -0.94830       -0.21110
H         -2.66890       -3.07240       -0.02500
H         -2.87830       -6.78170        0.36600
H         -2.86460       -5.42030       -0.80850
H         -3.47000       -5.15890        0.88430
H          1.06360       -4.82000        1.23910
H          2.15910       -2.60920        1.05100
H          4.14240        1.14070       -2.56510
H          2.71670       -1.48660       -2.49970
H          3.30390       -0.46160       -3.95850
H          5.91350       -0.64000        2.08560
H          8.26850       -0.57190        2.13570
H          9.54710        0.16020        0.15080
H          8.32500        0.77890       -1.90910
H          5.96970        0.67600       -1.98180
