56

P          0.94960        0.06850       -0.05260
C          0.11930        1.30940        0.98660
C         -1.22770        1.38040        1.35100
C         -1.69840        2.47460        2.10420
C         -0.83510        3.51110        2.46860
F         -1.29390        4.57430        3.17470
C          0.50340        3.46110        2.08770
C          0.96910        2.37250        1.36530
C          0.48410        0.56990       -1.73270
C          0.92350        1.79260       -2.26450
C          0.70010        2.09270       -3.61480
C          0.03670        1.17870       -4.44140
F         -0.14140        1.45520       -5.75700
C         -0.42580       -0.02900       -3.91610
C         -0.21840       -0.32930       -2.56710
C          0.32840       -1.49000        0.61790
C         -1.03550       -1.78040        0.39060
C         -1.57570       -3.01880        0.72690
C         -0.76080       -3.99500        1.28810
F         -1.28530       -5.21000        1.58670
C          0.59380       -3.73120        1.51300
C          1.14700       -2.48270        1.16960
Au         3.40960        0.06850       -0.05260
Br         3.40960        0.03000        2.53710
C          3.40960        0.10050       -2.20240
C          2.62360       -0.70580       -2.90540
N          5.50960        0.06850       -0.05260
C          6.28750       -0.44730       -1.07870
O          5.70570       -1.12760       -2.09660
C          6.32920       -1.95480       -3.01240
C          7.69940       -0.43420       -0.97920
C          8.31800        0.10070        0.13640
C          7.53980        0.59880        1.16570
C          6.15220        0.54850        1.06320
H         -1.95110        0.63320        1.08350
H         -2.74050        2.52810        2.39680
H          1.18080        4.27210        2.34770
H          2.01500        2.36930        1.05680
H          1.48370        2.48550       -1.65150
H          1.07040        3.02020       -4.02990
H         -0.91480       -0.74990       -4.56080
H         -0.53010       -1.29910       -2.20500
H         -1.68690       -1.07790       -0.10590
H         -2.61930       -3.22090        0.52030
H          1.22270       -4.50350        1.92570
H          2.20110       -2.30990        1.30660
H          4.25410        0.41950       -2.80030
H          1.96200       -1.38700       -2.38850
H          2.79850       -0.85170       -3.96820
H          5.56370       -2.39450       -3.68270
H          6.84280       -2.78720       -2.48160
H          7.05520       -1.38310       -3.62430
H          8.32920       -0.86930       -1.74270
H          9.39770        0.11150        0.21550
H          8.00890        1.02490        2.04270
H          5.62160        0.99290        1.87620
