55

P          0.94120       -0.04760        0.06540
C         -0.14040       -1.50150       -0.27000
C         -0.57910       -1.78830       -1.57810
C         -1.34600       -2.92790       -1.84570
C         -1.67700       -3.81320       -0.81680
Cl        -2.65130       -5.23330       -1.15040
C         -1.21340       -3.57470        0.47450
C         -0.43590       -2.44660        0.74370
C          0.46340        0.18510        1.80810
C          1.39680        0.27560        2.84210
C          0.95800        0.28980        4.18290
C         -0.40650        0.21680        4.48610
Cl        -0.95910        0.15970        6.15120
C         -1.34170        0.14820        3.45380
C         -0.91160        0.15120        2.13080
C          0.36790        1.09040       -1.21790
C         -1.00950        1.36790       -1.32010
C         -1.51000        2.13050       -2.37450
C         -0.63840        2.62840       -3.34350
Cl        -1.27440        3.54910       -4.69570
C          0.73370        2.36800       -3.24820
C          1.23790        1.60380       -2.18780
Au         3.40120       -0.04760        0.06540
Br         3.40120        2.50240        0.51870
C          3.40120       -2.16440       -0.31100
C          4.26940       -3.12580        0.03650
N          5.50120       -0.04760        0.06540
C          6.20420       -1.03470       -0.57560
C          7.58940       -1.11990       -0.53180
C          8.30900       -0.18860        0.20450
C          9.79730       -0.32010        0.33590
C          7.61590        0.85690        0.81740
C          6.21760        0.93310        0.70420
H         -0.32400       -1.14190       -2.40550
H         -1.67660       -3.12840       -2.85620
H         -1.44660       -4.26850        1.27460
H         -0.07410       -2.32560        1.75480
H          2.45680        0.28580        2.63060
H          1.68080        0.33250        4.98670
H         -2.40010        0.06540        3.67110
H         -1.66700        0.05360        1.36700
H         -1.71500        0.96660       -0.61050
H         -2.57600        2.31350       -2.44760
H          1.40550        2.74130       -4.00980
H          2.29550        1.37670       -2.14760
H          2.47890       -2.52550       -0.75310
H          5.17760       -2.93870        0.59180
H          4.04260       -4.15910       -0.20920
H          5.71920       -1.74940       -1.20840
H          8.08830       -1.92290       -1.06150
H         10.18090       -1.18820       -0.24330
H         10.05630       -0.48600        1.40320
H         10.29880        0.59910       -0.03030
H          8.15100        1.59880        1.39730
H          5.73830        1.72660        1.24110
