64

P          0.98970        0.06690        0.07360
C          0.13970        1.33380        1.26510
C         -1.40430        1.38060        1.26030
C          0.58860        1.02940        2.71400
C          0.62320        2.78500        1.02650
C          0.57170        0.56940       -1.81740
C          1.04620        1.93600       -2.41020
C          1.20180       -0.40650       -2.85220
C         -0.95390        0.57260       -2.04410
C          0.27030       -1.57410        0.79650
C          0.11890       -3.06090        0.15940
C          1.39340       -3.83550       -0.14590
C         -0.66980       -3.92770        1.18300
C         -0.73100       -3.12510       -1.12790
Au         3.44970        0.06690        0.07360
Br         3.44970        2.52110       -0.75410
C          3.44970       -1.97030        0.76060
C          3.40830       -2.27170        2.05910
N          5.54970        0.06690        0.07360
C          6.42860        1.16300        0.05630
C          6.07320        2.58180        0.39620
C          7.82870        0.98840       -0.03680
C          8.38440       -0.26910       -0.09270
C          7.55070       -1.34030       -0.01850
C          6.16730       -1.17570        0.07390
H         -1.87270        0.41860        1.51750
H         -1.82470        1.76420        0.32840
H         -1.75550        2.11660        2.01870
H          0.23580        0.04600        3.06900
H          0.17480        1.78770        3.41950
H          1.69670        1.07750        2.80360
H          0.30310        3.19440        0.06520
H          1.71690        2.87530        1.16120
H          0.19340        3.48970        1.76960
H          2.10340        1.91100       -2.72570
H          0.79970        2.83730       -1.84850
H          0.57530        2.12120       -3.40190
H          2.30300       -0.46140       -2.74700
H          0.98410       -0.07060       -3.89680
H          0.82940       -1.40570       -2.88640
H         -1.41800        1.47070       -1.61570
H         -1.43530       -0.34650       -1.66670
H         -1.20030        0.66370       -3.12640
H         -0.78890       -1.31740        0.95540
H          0.72320       -1.69700        1.79810
H          1.97040       -4.01990        0.78010
H          1.94740       -3.32590       -0.95790
H          1.18850       -4.85670       -0.53410
H         -0.13570       -3.98320        2.15360
H         -0.78710       -4.97360        0.80850
H         -1.69040       -3.52430        1.34970
H         -0.18840       -2.74000       -1.96330
H         -1.70460       -2.61500       -1.03620
H         -0.90480       -4.18210       -1.43680
H          3.64480       -2.74730        0.04230
H          3.29730       -1.49840        2.80810
H          3.50980       -3.30760        2.37310
H          5.21250        2.61570        1.07540
H          6.05900        3.22650       -0.50250
H          6.83960        3.02140        1.05820
H          8.50100        1.83940       -0.02010
H          9.46380       -0.39140       -0.14980
H          7.95780       -2.35340       -0.04050
H          5.65370       -2.10310        0.06430
