79

P          1.03590        0.05580       -0.07490
C          0.06980       -0.59320        1.49060
C         -1.37140       -0.53660        1.68350
C         -2.35460        0.11710        0.76520
C         -1.99830       -1.09100        2.83060
C         -1.28990       -1.68580        3.85290
C         -1.97480       -2.32440        5.03160
C          0.06590       -1.67760        3.79110
C          0.76420       -1.14220        2.68310
C          2.24000       -1.27600        2.88930
C          0.36360        1.76910       -0.03450
C          0.69540        2.67750        1.02200
C          1.69610        2.37930        2.09810
C          0.10480        3.94970        1.07490
C         -0.81360        4.35900        0.11100
C         -1.46530        5.70990        0.18330
C         -1.13590        3.49940       -0.93370
C         -0.56360        2.22060       -1.03390
C         -1.03460        1.36390       -2.18110
C          0.72400       -1.18420       -1.47970
C         -0.17450       -2.32080       -1.46790
C         -0.84320       -2.96630       -0.29240
C         -0.51720       -2.97290       -2.68180
C          0.01950       -2.60100       -3.89960
C         -0.40770       -3.28230       -5.17720
C          0.97400       -1.60220       -3.92620
C          1.33570       -0.89220       -2.75990
C          2.38710        0.17240       -2.96330
Au         3.49590        0.05580       -0.07490
Br         3.77520       -2.37970        0.43100
C          3.80320        2.13210       -0.60550
C          2.99790        3.12520       -0.97990
N          5.59590        0.05580       -0.07490
C          6.34250       -0.49630        0.94460
Cl         5.62990       -1.02630        2.46370
C          7.74180       -0.41810        0.92680
C          8.39230        0.13980       -0.16640
C          7.64330        0.65200       -1.21470
C          6.25160        0.63420       -1.13330
H         -2.01920        1.11010        0.49410
H         -3.27020        0.41550        1.32540
H         -2.65810       -0.54270       -0.06640
H         -3.07230       -1.07290        2.93410
H         -3.07720       -2.25050        4.94870
H         -1.65780       -1.83480        5.97700
H         -1.70370       -3.40280        5.08650
H          0.60420       -2.12850        4.62450
H          2.53680       -1.59930        3.90780
H          2.83030       -0.36810        2.71300
H          2.46350       -2.18450        2.38560
H          2.18850        1.42310        1.93310
H          1.21100        2.39060        3.09600
H          2.50160        3.14480        2.07620
H          0.36580        4.62940        1.87870
H         -1.11570        6.29040        1.06310
H         -2.56620        5.58400        0.26530
H         -1.23630        6.28910       -0.73590
H         -1.85650        3.83250       -1.67170
H         -1.81850        1.86640       -2.78580
H         -1.47560        0.41890       -1.81280
H         -0.20800        1.15470       -2.86910
H         -0.44130       -2.70590        0.67470
H         -0.61900       -4.05350       -0.33120
H         -1.94620       -2.84180       -0.34390
H         -1.23750       -3.78440       -2.66860
H         -1.19110       -4.05000       -4.99780
H          0.46080       -3.77490       -5.66100
H         -0.83210       -2.53510       -5.88500
H          1.41070       -1.34580       -4.88790
H          2.81580        0.14090       -3.99160
H          3.23770       -0.02670       -2.29010
H          1.99510        1.19230       -2.80820
H          4.82530        2.47370       -0.63780
H          1.95870        3.05510       -1.14010
H          3.43180        4.08740       -1.23900
H          8.32390       -0.76490        1.77180
H          9.47300        0.18800       -0.19510
H          8.13400        1.06670       -2.08610
H          5.69430        1.00950       -1.98150
