42

P          0.93000       -0.00480        0.07130
C         -0.37730        0.76670       -0.93860
C          0.70210       -1.67550       -0.61430
C          0.22520        0.45120        1.65660
C         -0.78520       -0.32390        2.24580
C         -1.45440        0.15120        3.37880
C         -1.12430        1.39980        3.91740
C         -0.11890        2.16710        3.33320
C          0.54250        1.70220        2.19310
Au         3.39000       -0.00480        0.07130
Br         3.39000       -1.45310        2.21850
C          3.39000        1.19750       -1.71120
C          4.45230        1.69110       -2.35240
N          5.49000       -0.00480        0.07130
C          6.20020        0.59030        1.07550
O          5.52290        1.28480        2.03010
C          6.07190        2.28370        2.81880
C          7.61060        0.61640        0.99620
C          8.25690       -0.02210       -0.06200
C          7.50980       -0.64500       -1.05660
C          6.11670       -0.58500       -0.99080
H         -1.39000        0.39580       -0.69780
H         -0.14860        0.58260       -2.01200
H         -0.32760        1.86810       -0.78930
H         -0.38140       -1.91870       -0.66620
H          1.20930       -2.42610        0.02040
H          1.12190       -1.70810       -1.64200
H         -1.08070       -1.26740        1.80830
H         -2.25040       -0.43100        3.82350
H         -1.65590        1.77570        4.78050
H          0.12460        3.14140        3.73540
H          1.29100        2.32820        1.72020
H          2.41310        1.43030       -2.12170
H          5.46610        1.54230       -2.02530
H          4.30400        2.28410       -3.24890
H          5.27960        2.72720        3.45630
H          6.48380        3.09860        2.17830
H          6.87260        1.87940        3.46950
H          8.21310        1.13460        1.72940
H          9.33860       -0.02700       -0.11650
H          7.99970       -1.16150       -1.87230
H          5.52520       -1.07550       -1.75690
