65

P          1.03980       -0.02190       -0.08910
C          0.08930        0.80320        1.22280
C         -1.07840        1.56950        1.06170
C         -1.64420        2.21230        2.18170
C         -1.05890        2.08230        3.44460
C          0.08830        1.31000        3.60560
C          0.65910        0.68200        2.50340
C          0.63550        1.15490       -1.42750
C          0.54170        2.55330       -1.31070
C          0.18650        3.33320       -2.42580
C         -0.06900        2.73430       -3.65850
C          0.01980        1.35530       -3.79600
C          0.36760        0.57910       -2.68890
C          0.19070       -1.65200       -0.08310
C          0.74920       -2.76620       -0.77250
C          1.98610       -2.65750       -1.63040
C          0.10830       -4.01630       -0.72040
C         -1.13520       -4.15420       -0.11350
C         -1.76070       -3.04400        0.44070
C         -1.10460       -1.81080        0.47130
Au         3.49980       -0.02190       -0.08910
Br         3.61930        2.30620       -0.93780
C          4.03840       -1.95470        0.73850
C          3.29740       -2.96130        1.19360
N          5.59980       -0.02190       -0.08910
C          6.41050        0.67320        0.63940
C          6.03200        1.39640        1.90310
C          4.72470        1.34030        2.42820
C          4.43820        1.86500        3.69790
C          5.44830        2.44860        4.46430
C          6.74390        2.52350        3.96070
C          7.03550        2.00410        2.69700
N          7.75630        0.41450        0.30460
C          7.80290       -0.66980       -0.62830
C          6.34010       -0.83560       -1.03770
H         -1.54050        1.68680        0.09950
H         -2.53010        2.82000        2.06320
H         -1.48960        2.58680        4.30280
H          0.55160        1.21490        4.58260
H          1.56570        0.10090        2.64890
H          0.73350        3.03540       -0.36520
H          0.10130        4.40220       -2.32560
H         -0.33550        3.33590       -4.52070
H         -0.18180        0.88150       -4.74560
H          0.38870       -0.49170       -2.83320
H          1.77230       -2.05500       -2.52000
H          2.35870       -3.64430       -1.97070
H          2.79170       -2.10810       -1.17740
H          0.55300       -4.88380       -1.19180
H         -1.63350       -5.11570       -0.11560
H         -2.75930       -3.14140        0.84970
H         -1.64910       -0.99020        0.90870
H          5.10010       -2.14660        0.87000
H          2.23010       -2.94040        1.21800
H          3.80970       -3.83860        1.59220
H          3.92700        0.85550        1.89220
H          3.43730        1.79420        4.10380
H          5.23380        2.83100        5.45500
H          7.53420        2.95960        4.56010
H          8.06310        2.05820        2.37860
H          8.59150        0.74450        0.80660
H          8.14800       -1.56430       -0.06340
H          8.47080       -0.47460       -1.49220
H          6.05450       -1.90460       -1.08520
H          6.17130       -0.38010       -2.03830
