69

P          1.06460        0.02030       -0.07360
C         -0.05680        0.29320        1.53190
C         -0.03870       -0.75690        2.70510
C          1.16550       -0.66920        3.60730
C          1.45280        0.80670        4.07520
C          1.27570        1.91780        2.97640
C          0.00110        1.69490        2.21160
C          0.57470        1.51240       -1.26150
C          1.01410        1.66430       -2.77070
C          0.29830        0.67720       -3.73090
C         -1.19620        1.01190       -3.75900
C         -1.72830        0.94400       -2.34660
C         -0.94380        1.82860       -1.33800
C          0.46610       -1.69490       -0.38200
C         -0.92310       -2.14940       -0.36240
C         -2.22310       -1.37540       -0.13890
C         -1.19300       -3.51210       -0.54900
C         -0.17470       -4.43070       -0.76590
C          1.14390       -4.00640       -0.78850
C          1.46680       -2.66070       -0.59250
Au         3.52460        0.02030       -0.07360
Br         3.52460       -0.12730       -2.65940
C          3.52460        0.14290        2.07290
C          4.13760       -0.82440        2.77290
N          5.62460        0.02030       -0.07360
C          6.04350        1.14560       -0.95260
C          6.38450        0.10600        1.19110
C          6.09250       -1.14470       -0.86830
H         -1.06930        0.29280        1.25390
H         -0.16630       -1.80540        2.35160
H         -0.88740       -0.54480        3.38830
H          1.89160       -1.20000        3.01930
H          1.11310       -1.30660        4.51800
H          2.44730        0.89420        4.57120
H          0.71730        1.03700        4.86190
H          1.98870        2.04200        2.15470
H          1.28640        2.90800        3.47980
H         -0.15170        2.51030        1.48110
H         -0.81290        1.76240        2.96900
H          1.04850        2.37040       -0.74600
H          2.07560        1.76190       -2.92490
H          0.72810        2.67580       -3.13500
H          0.47730       -0.37040       -3.39760
H          0.69660        0.76910       -4.76990
H         -1.73920        0.29970       -4.42020
H         -1.32730        2.04230       -4.17170
H         -1.61360       -0.11290       -2.11970
H         -2.79520        1.23340       -2.34450
H         -1.39950        1.82760       -0.33590
H         -1.05660        2.87800       -1.70160
H         -2.22160       -0.29160       -0.15170
H         -2.69490       -1.68860        0.81610
H         -2.93580       -1.59010       -0.96300
H         -2.21690       -3.87510       -0.53060
H         -0.43370       -5.47010       -0.90770
H          1.92550       -4.73640       -0.95220
H          2.50780       -2.37250       -0.60290
H          3.59410        1.06040        2.61740
H          4.38670       -1.77000        2.30740
H          4.39830       -0.66390        3.81770
H          5.68380        2.10030       -0.51320
H          5.66080        1.11120       -1.98310
H          7.15280        1.21930       -1.04220
H          6.04930        0.96900        1.80270
H          7.47180        0.25480        0.99620
H          6.36190       -0.84730        1.74900
H          5.74480       -1.18090       -1.91250
H          5.73270       -2.07620       -0.38140
H          7.20520       -1.19970       -0.90720
