105

P          1.07510        0.06190        0.02310
C          0.32570       -1.14110       -1.48520
C          0.79420       -0.86060       -3.00490
C          2.04160       -1.64140       -3.57050
C          2.09160       -3.14860       -3.29140
C          1.66050       -3.34180       -1.86520
C          0.30800       -2.72600       -1.52200
C          0.31060       -0.46050        1.72450
C         -1.24100       -0.41770        1.74900
C         -1.84920       -1.68500        1.12620
C         -1.26650       -2.98270        1.72960
C          0.26830       -2.96600        1.87420
C          0.65720       -1.70290        2.55860
C          0.14560        1.64450       -0.34540
C          0.23140        2.81200        0.49710
C          1.16100        2.96810        1.67510
C         -0.56030        3.94440        0.21530
C         -1.42160        3.96990       -0.87340
C         -1.50060        2.87410       -1.70770
C         -0.73900        1.73930       -1.45540
Au         3.53510        0.06190        0.02310
Br         3.53510       -2.49060        0.46240
C          3.53510        2.18070       -0.34150
C          2.69090        2.93430       -1.03700
C          5.68510        0.06190        0.02310
N          6.51680        0.87450       -0.67400
C          6.37500        1.76110       -1.84210
C          7.37860        2.75370       -2.25110
C          8.61490        3.23590       -1.50510
C          7.28680        3.35460       -3.53010
C          6.27130        3.05230       -4.41230
C          6.19020        3.65080       -5.78120
C          5.31660        2.16360       -4.03210
C          5.37930        1.50440       -2.81710
C          4.45290        0.38870       -2.73410
C          7.83890        0.40220       -0.45570
C          7.80710       -0.09390        0.87950
N          6.56660       -0.82200        0.87290
C          6.46410       -1.79670        1.96700
C          5.36430       -1.85180        2.88050
C          4.31200       -0.82990        2.93630
C          5.23290       -2.87990        3.84000
C          6.20220       -3.86340        3.98430
C          6.04870       -4.98740        4.96810
C          7.34580       -3.77810        3.22210
C          7.52100       -2.77970        2.24700
C          8.89220       -2.85370        1.59590
H         -0.73760       -0.91170       -1.49920
H          0.90910        0.21660       -3.22660
H         -0.02090       -1.23460       -3.66660
H          2.89260       -1.30450       -3.02300
H          2.22480       -1.46840       -4.65640
H          3.16040       -3.49300       -3.39580
H          1.47580       -3.77630       -3.95600
H          2.31890       -2.68220       -1.43950
H          1.80430       -4.38380       -1.50860
H         -0.16400       -3.19430       -0.67170
H         -0.36530       -3.10300       -2.32410
H          0.62530        0.37490        2.38290
H         -1.64060        0.50850        1.28830
H         -1.57680       -0.38890        2.81350
H         -1.66890       -1.68270        0.06810
H         -2.95260       -1.67800        1.23390
H         -1.58410       -3.85980        1.12760
H         -1.67890       -3.09460        2.75190
H          0.87440       -2.96440        0.97060
H          0.60250       -3.85150        2.45140
H          1.65480       -1.73810        2.81950
H          0.15330       -1.66050        3.55320
H          1.85630        2.12150        1.80810
H          0.58330        3.13060        2.60750
H          1.79170        3.87220        1.50660
H         -0.50410        4.82760        0.84020
H         -2.02430        4.84470       -1.07910
H         -2.16460        2.89010       -2.56530
H         -0.89630        0.97120       -2.17200
H          4.45590        2.69230       -0.08290
H          1.87480        2.51940       -1.58100
H          2.90590        3.98460       -1.20120
H          8.67560        3.01020       -0.42670
H          8.67610        4.34420       -1.53490
H          9.52290        2.85630       -2.03780
H          8.05530        4.06630       -3.84930
H          7.04550        4.31770       -6.00350
H          5.23800        4.20990       -5.90210
H          6.20200        2.81320       -6.52070
H          4.55220        1.90450       -4.76150
H          3.54440        0.62000       -3.32230
H          4.03280        0.30570       -1.79250
H          4.99150       -0.56470       -2.92640
H          8.71020        0.99890       -0.60720
H          8.01960       -0.45910       -1.17580
H          7.73880        0.75830        1.59780
H          8.74850       -0.58290        1.02170
H          4.32510       -0.05620        2.15780
H          4.21000       -0.37210        3.94160
H          3.48320       -1.44290        2.80140
H          4.35770       -2.92100        4.48420
H          5.06860       -4.96040        5.47660
H          6.85450       -4.93070        5.73390
H          6.13230       -5.95710        4.42760
H          8.12830       -4.51070        3.40570
H          9.46120       -3.76420        1.86970
H          9.54640       -2.08020        2.05900
H          8.82990       -2.81000        0.49460
