55

P          0.92040       -0.05270        0.02990
C         -0.28250       -1.36750       -0.35740
C          0.61130       -0.02220        1.82670
C          0.18640        1.19030       -1.08020
Au         3.38040       -0.05270        0.02990
Br         3.38040       -1.97200        1.76900
C          3.38040        1.54050       -1.41380
C          3.89340        1.46280       -2.63890
P          5.84040       -0.05270        0.02990
N          6.80470       -1.25430       -0.92810
C          6.20350       -1.34520       -2.27830
C          8.28280       -1.39380       -1.05570
C          9.06820       -1.18100        0.20670
N          8.90350        0.16520        0.78400
C          8.84990        1.45310        0.04800
C          7.79250        1.61810       -1.10200
N          6.33350        1.45950       -0.81580
C          5.86430        2.64470       -0.04840
N          6.50570       -0.64140        1.62840
C          6.16070       -1.79420        2.46340
C          7.20080        0.38250        2.44240
C          8.68450        0.20350        2.22580
H         -1.32410       -1.08800       -0.11570
H          0.00280       -2.27690        0.21780
H         -0.19200       -1.62710       -1.43460
H         -0.48210        0.04200        2.00870
H          1.09940        0.86500        2.27630
H          0.96860       -0.94260        2.32000
H         -0.91720        1.18720       -0.91700
H          0.38100        0.94140       -2.14120
H          0.54700        2.20450       -0.82750
H          2.93230        2.47860       -1.10340
H          4.35420        0.56100       -3.00080
H          3.85280        2.33120       -3.29020
H          5.10360       -1.46850       -2.21420
H          6.59140       -2.22310       -2.83070
H          6.43110       -0.43300       -2.88510
H          8.72180       -0.80270       -1.88120
H          8.47760       -2.43200       -1.37960
H         10.13890       -1.38400        0.01170
H          8.70940       -1.96710        0.90670
H          9.85710        1.64550       -0.36850
H          8.68420        2.27000        0.78470
H          8.03350        1.05070       -2.00460
H          7.94950        2.65050       -1.47770
H          5.84730        3.51990       -0.71470
H          6.51960        2.90470        0.79450
H          4.84740        2.49260        0.37580
H          5.40270       -1.46830        3.21870
H          7.01360       -2.08370        3.11580
H          5.90830       -2.68210        1.86800
H          6.89220        1.38540        2.15790
H          6.98850        0.30050        3.53190
H          9.02260       -0.75040        2.70540
H          9.27870        1.00760        2.71260
