58

P          1.06420       -0.02400       -0.07290
C          0.60540        1.74010       -0.31030
C          0.12030        2.49420        0.77610
C         -0.26410        3.83170        0.60810
C         -0.16860        4.44000       -0.64350
C          0.31380        3.71750       -1.72290
C          0.69870        2.38570       -1.56280
C          0.79300       -1.10290       -1.51020
C          0.11510       -0.65560       -2.66340
C         -0.05800       -1.49680       -3.76330
C          0.41870       -2.80490       -3.72350
C          1.06410       -3.27500       -2.57650
C          1.25260       -2.42850       -1.47520
C         -0.14920       -0.66770        1.14780
C         -1.62060       -0.75590        0.97830
C         -2.18670       -1.54170       -0.03160
C         -3.56660       -1.73860       -0.06710
C         -4.38430       -1.16070        0.90990
C         -3.82540       -0.37850        1.92080
C         -2.44880       -0.17350        1.95660
Au         3.52420       -0.02400       -0.07290
Br         3.46240        0.96940       -2.36140
C          3.68030       -0.86750        1.89840
C          2.76860       -1.26530        2.77880
N          5.62420       -0.02400       -0.07290
C          6.26030        0.87430       -0.89160
C          7.64710        0.91730       -1.01560
C          8.42510       -0.03160       -0.36180
C          9.91190       -0.06560       -0.54830
C          7.79230       -0.97190        0.44750
C          6.40260       -0.93250        0.60940
H          0.02910        2.06470        1.75980
H         -0.64050        4.39670        1.44980
H         -0.46990        5.47160       -0.77620
H          0.39300        4.18280       -2.70190
H          1.05280        1.89220       -2.44240
H         -0.30270        0.32910       -2.73630
H         -0.56880       -1.13150       -4.64640
H          0.27890       -3.45410       -4.57860
H          1.41990       -4.29590       -2.54520
H          1.75790       -2.80820       -0.59670
H          0.05610       -0.10880        2.08400
H          0.15430       -1.72360        1.31330
H         -1.56400       -2.03690       -0.76070
H         -3.99560       -2.36180       -0.83790
H         -5.45090       -1.33410        0.89320
H         -4.45000        0.05130        2.69340
H         -2.02690        0.40150        2.77440
H          4.64880       -0.94430        2.34400
H          1.73590       -1.24870        2.61760
H          3.09740       -1.61450        3.75430
H          5.71770        1.63510       -1.41530
H          8.10240        1.67470       -1.64230
H         10.26310        0.78880       -1.16600
H         10.19260       -1.00680       -1.06730
H         10.41940       -0.02390        0.43680
H          8.36780       -1.75040        0.93380
H          5.99700       -1.75440        1.16660
