38

P          1.27500        0.00000        0.00000
O          0.28440        0.73260       -1.20780
C         -1.09470        0.64440       -0.99140
C         -1.39340       -0.16410        0.25830
C         -2.91450       -0.27440        0.43480
C         -0.71870       -1.57170        0.05260
O          0.67730       -1.56160       -0.28400
O          0.66870        0.95720        1.25980
C         -0.70770        0.59990        1.45320
Au         3.73500        0.00030       -0.00050
Br         3.73560       -1.54840        2.07550
C          3.73450        1.28600       -1.72370
C          3.25140        0.86560       -2.88930
N          5.83500        0.00060       -0.00090
C          6.09900       -1.27430       -0.71170
C          6.48320        0.99470       -0.88960
C          6.47790       -0.15830        1.32110
H         -1.54940        0.16840       -1.88480
H         -1.50110        1.67500       -0.90350
H         -3.36970       -0.76150       -0.45740
H         -3.36750        0.73960        0.52370
H         -3.16570       -0.86350        1.33580
H         -1.24540       -2.07580       -0.78920
H         -0.87090       -2.18510        0.96230
H         -1.25890        1.55660        1.59770
H         -0.81480        0.00540        2.38240
H          4.13230        2.29200       -1.64080
H          2.84120       -0.12810       -2.97560
H          3.24930        1.53320       -3.74950
H          5.62100       -1.27830       -1.71760
H          5.64520       -2.13140       -0.16910
H          7.19120       -1.48200       -0.82860
H          6.18140        0.91470       -1.95570
H          7.59190        0.89830       -0.86720
H          6.24410        2.01540       -0.52300
H          6.29200       -1.13550        1.80480
H          6.12470        0.65230        1.99410
H          7.58410       -0.07250        1.24270
