35

P          1.27500        0.00000        0.00000
N          0.28800        1.42540       -0.39630
C         -1.15190        1.23200       -0.40440
C         -1.47840       -0.20320       -0.04160
C         -3.00840       -0.36200       -0.04510
C         -0.81380       -1.13780       -1.12870
N          0.65380       -0.95710       -1.32480
N          0.55670       -0.18540        1.58170
C         -0.89530       -0.48570        1.39960
Au         3.73500        0.00030       -0.00050
Br         3.72990        0.72970       -2.36960
C          3.72710       -0.59070        1.98300
C          3.73070        0.31880        2.95510
C          5.88500        0.00060       -0.00090
N          6.63260       -0.33190        1.06790
C          7.89840       -0.19750        0.63860
C          7.87550        0.21650       -0.67410
O          6.61960        0.32520       -1.04190
H          0.60620        1.81650       -1.31460
H         -1.56000        1.48650       -1.40890
H         -1.59980        1.94510        0.32170
H         -3.42130       -0.11510       -1.05240
H         -3.47560        0.33440        0.68180
H         -3.30350       -1.40030        0.21020
H         -1.31620       -0.96960       -2.10800
H         -1.01020       -2.19380       -0.85050
H          0.84370       -0.43800       -2.21270
H          0.67340        0.73100        2.07710
H         -1.46700        0.10810        2.14850
H         -1.06930       -1.55610        1.64330
H          3.75280       -1.64680        2.22660
H          3.72130        1.37590        2.71310
H          3.74160        0.00800        3.99540
H          8.77750       -0.37800        1.24130
H          8.72760        0.41160       -1.30930
