56

P          0.97450        0.09400        0.02280
C          0.41930       -1.42540       -0.86350
C         -0.72330       -2.23650       -0.65190
C         -0.91370       -3.40850       -1.39880
C          0.01240       -3.79340       -2.36710
C          1.13540       -3.00880       -2.59760
C          1.33430       -1.84320       -1.85500
C          0.40400       -0.41340        1.68260
C          1.24500       -0.60200        2.79560
C          0.69460       -0.91750        4.04800
C         -0.69080       -1.03650        4.20900
C         -1.53290       -0.79820        3.12920
C         -0.98980       -0.47140        1.88970
C          0.14910        1.58800       -0.62560
C          0.36130        2.88860       -0.06600
O          1.19930        3.05250        1.00150
C          1.58480        4.27940        1.53220
C         -0.27590        4.00930       -0.65320
C         -1.09920        3.85300       -1.76520
C         -1.30270        2.59530       -2.30800
C         -0.69210        1.46960       -1.75050
Au         3.43450        0.09400        0.02280
Br         3.20670       -2.26800        0.85020
C          3.49520        2.06320       -0.77370
C          2.66230        2.42290       -1.74010
N          5.53450        0.09400        0.02280
C          6.27210        1.24970        0.09860
C          7.66220        1.24180        0.07170
C          8.33110        0.04210       -0.10770
Cl        10.08100        0.02890       -0.21840
C          7.59720       -1.13920       -0.19150
C          6.19910       -1.09860       -0.07420
H         -1.47910       -2.04190        0.07250
H         -1.78170       -4.02940       -1.21840
H         -0.13740       -4.70520       -2.93360
H          1.86010       -3.30710       -3.34540
H          2.22950       -1.26460       -2.05290
H          2.31260       -0.48790        2.70770
H          1.33820       -1.06580        4.90510
H         -1.11600       -1.27440        5.17620
H         -2.60980       -0.85490        3.25470
H         -1.67650       -0.23730        1.08730
H          2.29370        4.12750        2.37080
H          0.70070        4.83200        1.91830
H          2.09550        4.90000        0.76070
H         -0.12950        5.00960       -0.27280
H         -1.57160        4.72440       -2.20310
H         -1.94550        2.48530       -3.17560
H         -0.86030        0.50780       -2.20730
H          4.27180        2.80410       -0.68730
H          1.96660        1.70740       -2.15090
H          2.76210        3.37410       -2.24650
H          5.83760        2.19850        0.29660
H          8.20740        2.17140        0.18860
H          8.10540       -2.07970       -0.35790
H          5.65980       -2.02320       -0.18150
