58

P          0.94750        0.04830        0.07010
C         -0.24940        0.18230        1.46630
C         -1.62260        0.51310        1.38450
C         -2.41240        0.54030        2.54630
C         -1.86050        0.27830        3.80710
C         -0.50910       -0.04320        3.89580
C          0.26240       -0.10320        2.74960
C          0.71790        1.61210       -0.79430
C          1.13890        2.80540       -0.19480
C          0.94220        4.02430       -0.84360
C          0.32310        4.06430       -2.09710
C         -0.10020        2.87430       -2.70020
C          0.10020        1.65160       -2.05260
C          0.37420       -1.53620       -0.66390
C          1.16260       -2.72390       -0.75750
C          2.57910       -2.85270       -0.28030
C          0.59020       -3.89750       -1.28570
C         -0.74330       -3.92910       -1.68530
C         -1.52400       -2.78760       -1.57700
C         -0.97060       -1.60690       -1.08090
Au         3.40750        0.04830        0.07010
Br         3.40750       -0.37420       -2.48520
C          3.40750        0.39900        2.19130
C          3.75620       -0.56220        3.04950
N          5.50750        0.04830        0.07010
C          6.23390       -0.37440       -1.01810
N          7.58760       -0.45850       -0.97760
C          8.29190       -0.08200        0.11680
O          9.63850       -0.19870        0.15400
C         10.37600       -0.87170       -0.80260
C          7.61120        0.40280        1.21640
C          6.21730        0.44190        1.18020
H         -2.07550        0.74650        0.44480
H         -3.46440        0.80060        2.49080
H         -2.45380        0.31980        4.70960
H         -0.05730       -0.26200        4.86230
H          1.26590       -0.39610        2.88110
H          1.61780        2.78780        0.77700
H          1.27130        4.94530       -0.37700
H          0.16880        5.01070       -2.59770
H         -0.58490        2.90700       -3.66860
H         -0.24080        0.74150       -2.53300
H          2.94520       -1.95420        0.21700
H          3.24330       -3.10470       -1.13410
H          2.64170       -3.66720        0.47100
H          1.17380       -4.80650       -1.36270
H         -1.17530       -4.84550       -2.06810
H         -2.56610       -2.81460       -1.86940
H         -1.61770       -0.75180       -1.01830
H          3.04980        1.35290        2.56570
H          4.02580       -1.54680        2.68550
H          3.70680       -0.37640        4.11840
H          5.78590       -0.74440       -1.90710
H         11.45240       -0.82280       -0.53740
H         10.22820       -0.41410       -1.80370
H         10.07120       -1.94100       -0.83290
H          8.14790        0.72780        2.09870
H          5.74720        0.82840        2.06030
