81

P          1.04610       -0.05230       -0.07170
C         -0.01740        0.85490        1.24380
C         -1.53600        0.90970        1.03490
C          0.16630        0.21370        2.65130
C          0.45570        2.34120        1.28430
C          0.63360        0.85460       -1.58510
C          1.60730        1.52700       -2.33940
C          1.22280        2.26730       -3.47790
C         -0.11660        2.32900       -3.86950
C         -1.08910        1.64170       -3.13750
C         -0.71140        0.90210       -2.01970
C          0.49840       -1.77520       -0.02080
C         -0.26490       -2.30830       -1.07290
C         -0.78570       -3.60060       -0.98740
C         -0.54430       -4.37440        0.14650
C          0.23510       -3.86760        1.18850
C          0.75600       -2.57390        1.10530
Au         3.50610       -0.05230       -0.07170
Br         3.50610       -1.46310       -2.24370
C          3.50610        1.11870        1.73140
C          4.21550        2.24180        1.84940
P          5.96610       -0.05230       -0.07170
C          6.83920       -1.58680       -0.61680
C          7.36150       -1.93220       -1.88840
C          7.74600       -3.25770       -2.16500
C          7.66640       -4.24520       -1.18340
C          7.20890       -3.91550        0.08500
C          6.78790       -2.61370        0.35560
C          6.22470        1.10260       -1.48220
C          6.60010        2.41200       -1.11820
C          6.87010        3.39500       -2.07340
C          6.82140        3.07840       -3.42590
C          6.44740        1.79300       -3.82240
C          6.11390        0.82210       -2.86990
C          6.72930        0.25110        1.62540
C          8.11460        0.52010        1.83120
O          8.99650        0.41990        0.79900
C         10.37100        0.29800        0.97390
C          8.58450        0.85180        3.13980
C          7.73070        0.88210        4.23180
C          6.42260        0.47830        4.06570
C          5.95500        0.13000        2.79980
H         -1.95770       -0.10930        0.94710
H         -1.82860        1.55950        0.19300
H         -2.00840        1.40300        1.91810
H         -0.38830       -0.73950        2.73030
H         -0.22270        0.89040        3.44680
H          1.18570       -0.04840        2.93890
H          0.30520        2.83580        0.29930
H          1.51400        2.47450        1.52930
H         -0.09930        2.93220        2.04460
H          2.63500        1.51190       -2.04410
H          1.97150        2.79040       -4.04840
H         -0.41160        2.90140       -4.73720
H         -2.12620        1.67250       -3.43730
H         -1.47840        0.36250       -1.49790
H         -0.48640       -1.72570       -1.95320
H         -1.39040       -3.99250       -1.79520
H         -0.96070       -5.37550        0.21340
H          0.41520       -4.47330        2.06700
H          1.33900       -2.19400        1.93200
H          2.84100        0.94240        2.53630
H          4.82900        2.59500        1.04300
H          4.12370        2.84520        2.74920
H          7.44290       -1.26140       -2.71030
H          8.08450       -3.53240       -3.15630
H          7.94930       -5.26800       -1.40550
H          7.14540       -4.67670        0.85400
H          6.38840       -2.42060        1.34300
H          6.67990        2.69280       -0.07830
H          7.13180        4.40000       -1.76010
H          7.06980        3.83040       -4.16660
H          6.42190        1.55240       -4.87690
H          5.80340       -0.14110       -3.23180
H         10.86510        0.08620        0.00790
H         10.60100       -0.53890        1.66800
H         10.79670        1.24460        1.38700
H          9.62480        1.08660        3.33070
H          8.09700        1.14350        5.21490
H          5.76050        0.43410        4.92270
H          4.96280       -0.24770        2.78470
