83

P          1.04250        0.08980       -0.01190
C         -0.16730       -0.42560        1.39820
C         -1.65930       -0.14490        1.16520
C         -0.04510       -1.95160        1.66520
C          0.17870        0.33010        2.72300
C          0.82930        1.91240       -0.11480
C          1.55680        2.74780        0.74370
C          1.42790        4.14330        0.67730
C          0.53710        4.72560       -0.22640
C         -0.21240        3.91540       -1.07220
C         -0.05620        2.52810       -1.03220
C          0.30860       -0.67790       -1.52540
C         -1.04650       -0.45080       -1.87020
C         -1.63840       -1.03480       -2.98240
C         -0.88920       -1.86690       -3.80330
C          0.45380       -2.10500       -3.50310
C          1.05400       -1.52030       -2.37010
Au         3.50250        0.08980       -0.01190
Br         3.50250        1.12450       -2.38620
C          3.50250       -0.76920        1.95910
C          4.55160       -1.02200        2.74610
C          5.65250        0.08980       -0.01190
N          6.41060        1.21010       -0.20880
C          5.92860        2.59620       -0.28110
C          5.13110        2.94620        0.98810
C          5.94120        2.88650        2.29820
C          5.06010        3.25020        3.49920
C          7.69880        0.81760       -0.12390
C          7.72370       -0.53440        0.09760
C          8.93490       -1.24410        0.17010
C         10.13420       -0.52520        0.05830
C         10.10610        0.87580       -0.11320
C          8.88100        1.56090       -0.21130
N          6.46580       -1.00190        0.21610
C          6.12980       -2.44250        0.26020
C          6.04180       -3.07000       -1.13150
C          6.07140       -2.29330       -2.30920
C          5.93960       -2.89230       -3.56430
C          5.79510       -4.27510       -3.67270
C          5.79570       -5.06580       -2.52230
C          5.91520       -4.47000       -1.25790
H         -2.09570       -0.85100        0.43670
H         -1.82890        0.91850        0.90320
H         -2.24240       -0.36180        2.08920
H         -0.34860       -2.53650        0.77300
H         -0.69470       -2.25900        2.51590
H          0.97330       -2.28590        1.92430
H          0.13870        1.42660        2.59200
H          1.14840        0.10410        3.18030
H         -0.54170        0.06920        3.53000
H          2.22870        2.31610        1.46330
H          2.01390        4.77620        1.32920
H          0.42390        5.80190       -0.27210
H         -0.91540        4.36170       -1.76680
H         -0.65520        1.98100       -1.72530
H         -1.69280        0.19400       -1.30450
H         -2.67990       -0.84130       -3.20620
H         -1.36010       -2.31570       -4.66890
H          1.02260       -2.75150       -4.15560
H          2.09220       -1.72720       -2.15620
H          2.57070       -1.03660        2.36770
H          5.56830       -0.79580        2.47660
H          4.38230       -1.47590        3.71910
H          5.29330        2.72810       -1.17180
H          6.76870        3.31400       -0.37040
H          4.30540        2.22110        1.07060
H          4.71170        3.96900        0.87640
H          6.79120        3.60060        2.25220
H          6.34470        1.86270        2.45750
H          4.65960        4.28100        3.38860
H          5.65160        3.20490        4.43860
H          4.20750        2.54240        3.58820
H          8.97560       -2.31600        0.30310
H         11.08140       -1.04320        0.11320
H         11.04140        1.42080       -0.17810
H          8.87840        2.63170       -0.34620
H          5.19250       -2.63650        0.80430
H          6.92830       -2.97170        0.82460
H          6.17740       -1.22130       -2.27650
H          5.94300       -2.27820       -4.45560
H          5.68500       -4.73060       -4.64890
H          5.69510       -6.14040       -2.61480
H          5.91100       -5.10600       -0.38050
