77

P          1.02460        0.07120        0.06580
C         -0.08080       -0.98740        1.23810
C         -1.61650       -0.86220        1.29120
C         -2.29100       -1.56400        0.12560
C         -1.94080       -3.05940        0.13070
C         -0.42880       -3.26060        0.08130
C          0.26400       -2.50820        1.23040
C          0.39300        1.71440        0.79740
C          0.64260        2.02750        2.30770
C          2.04580        2.47780        2.59440
C          2.39080        3.72150        1.74830
C          2.20090        3.42360        0.24970
C          0.76460        2.96240       -0.02100
C          0.70860       -0.53710       -1.73990
C         -0.29800        0.01170       -2.63660
C         -1.35340        1.01990       -2.28410
C         -0.41330       -0.43490       -3.97730
C          0.38390       -1.45420       -4.48170
C          0.28160       -1.91400       -5.91720
C          1.28290       -2.06630       -3.62670
C          1.46050       -1.64550       -2.29090
C          2.42760       -2.50710       -1.52580
Au         3.48460        0.07120        0.06580
Br         3.51020        0.95600       -2.26450
C          3.90700       -0.73340        1.98320
C          3.07880       -1.11010        2.92610
N          5.58460        0.07120        0.06580
C          6.25640       -0.65440       -0.86840
C          7.64840       -0.79530       -0.77580
C          8.35680       -0.06950        0.20170
O          9.70500       -0.13200        0.34510
C         10.53720       -1.04490       -0.26410
C          7.64590        0.74120        1.08590
C          6.25580        0.74720        1.04240
H          0.18510       -0.65880        2.23600
H         -1.96120        0.17540        1.41020
H         -1.96430       -1.37840        2.22110
H         -1.95260       -1.10200       -0.81210
H         -3.38740       -1.44760        0.21390
H         -2.40530       -3.54910       -0.75120
H         -2.34230       -3.53770        1.05120
H         -0.10060       -2.88940       -0.88650
H         -0.18510       -4.34270        0.12840
H          1.35930       -2.67660        1.23200
H         -0.10430       -2.96680        2.17230
H         -0.69440        1.65040        0.70750
H          0.34820        1.22020        2.99520
H         -0.03080        2.87480        2.58540
H          2.77000        1.66490        2.35680
H          2.15880        2.74040        3.66720
H          3.43730        4.03820        1.93990
H          1.71890        4.55700        2.05220
H          2.91010        2.64400       -0.05960
H          2.39450        4.35330       -0.32580
H          0.58920        2.79050       -1.10220
H          0.08200        3.79020        0.28980
H         -1.34780        1.31030       -1.23760
H         -2.34620        0.53890       -2.46480
H         -1.29580        1.91080       -2.94110
H         -1.15770        0.00070       -4.64080
H         -0.46630       -1.33020       -6.50020
H          0.00020       -2.98930       -5.97380
H          1.26620       -1.79100       -6.42370
H          1.86510       -2.89670       -4.02220
H          3.40860       -2.54280       -2.05730
H          2.02850       -3.54800       -1.53070
H          2.58240       -2.18120       -0.49910
H          4.94240       -0.98200        2.20400
H          2.02660       -0.97190        2.87170
H          3.45150       -1.60310        3.82290
H          5.70330       -1.24260       -1.58930
H          8.15620       -1.47100       -1.45100
H         11.58430       -0.84010        0.04430
H         10.46790       -0.96580       -1.36740
H         10.26880       -2.07110        0.06680
H          8.16470        1.33960        1.82500
H          5.70060        1.36390        1.73910
