74

P          1.09060       -0.03370       -0.02540
C          0.40420       -0.69040       -1.70380
C         -1.09600       -0.85110       -2.02380
C         -1.75610        0.42860       -2.58560
C         -1.05710        1.07740       -3.76970
C          0.39760        1.32530       -3.42000
C          1.03800        0.01440       -2.99090
C          0.65480       -0.94930        1.65740
C          1.05320       -0.27400        2.99710
C          0.19320        0.96820        3.29430
C         -1.19540        0.47700        3.71490
C         -1.79460       -0.53310        2.71920
C         -0.78870       -1.49350        2.00870
C          0.48000        1.82010       -0.08100
C         -0.90150        2.30820        0.09150
C         -2.19470        1.55620        0.31360
C         -1.23530        3.67160       -0.00110
C         -0.29920        4.64190       -0.28570
C         -0.72670        6.06820       -0.44540
C          1.00510        4.24610       -0.46500
C          1.40930        2.89050       -0.37830
C          2.83240        2.67910       -0.68530
Au         3.55060       -0.03370       -0.02540
Br         3.70930        1.30140        2.12880
C          3.63260       -1.07460       -1.90250
C          4.58910       -1.04500       -2.85440
N          5.65060       -0.03370       -0.02540
C          5.79510        1.38660       -0.39140
N          6.39760       -0.80610       -0.87700
C          7.54780       -1.08860       -0.38740
C          7.63060       -0.63690        0.91400
C          6.42040       -0.01850        1.17510
H          0.78020       -1.73500       -1.66190
H         -1.61850       -1.29330       -1.15450
H         -1.16980       -1.59700       -2.85190
H         -1.66530        1.20960       -1.89670
H         -2.82600        0.24960       -2.80880
H         -1.53210        2.06470       -3.98590
H         -1.13390        0.43490       -4.66620
H          0.50140        2.07470       -2.62240
H          0.91800        1.74110       -4.31120
H          2.08740        0.29550       -2.92150
H          0.93950       -0.68250       -3.85660
H          1.24910       -1.87890        1.55370
H          2.09410       -0.13800        3.07550
H          0.92860       -0.96980        3.85760
H          0.16210        1.65010        2.42870
H          0.61130        1.55620        4.14150
H         -1.88970        1.33740        3.87390
H         -1.07660       -0.02990        4.69310
H         -2.31840       -0.00080        2.00460
H         -2.64540       -1.07230        3.18460
H         -1.26090       -2.03900        1.16620
H         -0.62190       -2.26350        2.79960
H         -2.05760        0.48400        0.12550
H         -2.97990        1.85930       -0.42210
H         -2.65520        1.86890        1.27610
H         -2.26800        4.00510        0.11380
H         -1.81700        6.20350       -0.27080
H         -0.51640        6.39540       -1.48770
H         -0.18030        6.71280        0.26860
H          1.72950        5.01020       -0.70370
H          3.20190        3.42230       -1.42140
H          3.00790        1.69730       -1.14540
H          3.39370        2.94210        0.21560
H          2.78280       -1.63400       -2.22060
H          5.46990       -0.41680       -2.84620
H          4.45020       -1.58310       -3.78800
H          5.30050        1.57570       -1.36380
H          6.86050        1.69760       -0.52180
H          5.38270        2.09290        0.34500
H          8.30950       -1.63210       -0.93090
H          8.45650       -0.76520        1.60030
H          6.17040        0.40610        2.13270
