58

C          1.02400       -0.65300       -0.05500
N          1.01740        0.60790       -0.25750
C          2.19080        1.38700       -0.57800
C         -0.30030        1.16570       -0.05500
C         -1.19960       -0.07370        0.11890
N         -0.24610       -1.13900        0.28390
C         -0.55520       -2.50020        0.64390
Au         2.78020       -1.86970       -0.29550
Br         2.18700       -2.14070       -2.69470
C          3.21290       -1.58500        1.74830
C          2.51720       -0.82370        2.59810
P          4.78960       -3.26190       -0.57060
C          5.54040       -3.20500       -2.22190
C          5.91190       -1.91760       -2.65560
C          6.34060       -1.69080       -3.96220
C          6.39920       -2.74920       -4.86510
C          6.04660       -4.03800       -4.45210
C          5.62350       -4.27460       -3.13430
C          6.07310       -2.58840        0.52790
C          7.08990       -3.41870        1.03620
C          8.04830       -2.91350        1.91920
C          8.02170       -1.56780        2.28470
C          7.04720       -0.72160        1.75120
C          6.08150       -1.22600        0.87220
C          4.17290       -4.97520       -0.48690
C          3.22900       -5.47180       -1.39800
C          2.86360       -6.82180       -1.34910
C          3.42790       -7.67010       -0.39840
C          4.34320       -7.15000        0.51550
O          4.84650       -7.87590        1.35570
N          4.68360       -5.82220        0.45810
H          3.09380        0.74270       -0.65750
H          2.36380        2.13660        0.22390
H          2.03810        1.91580       -1.54130
H         -0.64230        1.79210       -0.90640
H         -0.26770        1.76680        0.88060
H         -1.76930       -0.28890       -0.81370
H         -1.88740        0.04670        0.98120
H         -1.64770       -2.61340        0.81320
H         -0.02760       -2.75480        1.58800
H         -0.23300       -3.19310       -0.15910
H          4.04660       -2.11610        2.16530
H          1.64420       -0.25540        2.31290
H          2.82300       -0.76660        3.63930
H          5.83110       -1.06670       -1.99030
H          6.59970       -0.68740       -4.27880
H          6.70560       -2.56470       -5.88720
H          6.07760       -4.84990       -5.16640
H          5.32710       -5.27590       -2.87220
H          7.15630       -4.45960        0.76560
H          8.81110       -3.56840        2.32230
H          8.76180       -1.18060        2.97340
H          7.03620        0.32510        2.02470
H          5.33330       -0.55550        0.47210
H          2.80380       -4.83950       -2.15870
H          2.15420       -7.21770       -2.06240
H          3.16180       -8.72010       -0.36990
H          5.36690       -5.47540        1.16150
