81

C          0.90100       -0.64300       -0.00200
N          0.86970        0.69090        0.42710
C          1.85730        1.68100        0.89320
C          2.40140        1.38830        2.27760
C          2.86150        2.02210       -0.23240
C         -0.35220        1.17470        0.14990
C         -1.05920        0.24560       -0.50570
N         -0.31410       -0.86530       -0.67550
C         -1.01340       -1.96540       -1.35290
C         -1.15190       -1.71170       -2.88370
C         -0.48520       -3.32800       -1.05190
Au         2.65840       -1.88140       -0.01350
Br         2.32700       -2.21970        2.46470
C          2.86990       -1.35970       -2.01310
C          3.00450       -2.25510       -2.98540
C          4.41590       -3.11990       -0.02500
N          5.78090       -2.79870        0.34070
C          6.57360       -1.52520        0.56540
C          5.91960       -0.36130        0.95700
C          4.58930       -0.41270        1.25750
C          6.44470        0.89850        1.01930
C          7.72510        1.12230        0.61430
C          8.12180        2.55350        0.41200
C          8.53010        0.01730        0.31540
C          8.01130       -1.31910        0.31830
C          9.04310       -2.37630       -0.02950
C          6.41490       -3.98110        0.30660
C          5.58690       -4.96120       -0.07940
N          4.37950       -4.44880       -0.35220
C          3.36390       -5.25240       -0.96150
C          2.08800       -5.48840       -0.38840
C          1.73720       -5.11030        1.02250
C          1.10880       -6.15840       -1.14310
C          1.39130       -6.60740       -2.43980
C          0.33780       -7.22630       -3.30180
C          2.67300       -6.46090       -2.96050
C          3.65820       -5.79210       -2.23980
C          5.01930       -5.60500       -2.88960
H          1.36530        2.67450        1.04550
H          2.76390        0.38280        2.36670
H          1.57780        1.42390        3.01290
H          3.18760        2.12730        2.54870
H          3.49080        1.20530       -0.58450
H          3.52200        2.86540        0.06010
H          2.29530        2.34460       -1.13460
H         -0.70260        2.18770        0.36900
H         -2.07770        0.39560       -0.86410
H         -2.06700       -2.00270       -0.98340
H         -0.16050       -1.71070       -3.38160
H         -1.66080       -0.74290       -3.07130
H         -1.78640       -2.50450       -3.33370
H          0.58280       -3.40830       -1.33340
H         -1.08550       -4.09830       -1.58080
H         -0.65650       -3.47920        0.03140
H          2.64200       -0.36260       -2.32060
H          2.93040       -3.30220       -2.75910
H          2.94670       -1.90840       -4.01640
H          4.13060       -0.59780        0.29190
H          4.13080       -0.59800        0.29180
H          4.52160       -1.23430        1.97810
H          5.80210        1.73650        1.28510
H          7.20490        3.11440        0.09780
H          8.77030        2.66010       -0.48080
H          8.48390        3.04900        1.33110
H          9.55760        0.21270        0.02950
H         10.05260       -1.93730       -0.20610
H          8.77560       -2.92930       -0.94960
H          9.21000       -3.06080        0.83060
H          7.44500       -4.17550        0.55110
H          5.86380       -6.00210       -0.18960
H          2.60910       -4.72010        1.55890
H          1.38700       -6.01030        1.57240
H          0.91510       -4.37890        1.05230
H          0.11810       -6.31160       -0.72910
H         -0.63960       -7.26940       -2.77770
H          0.64050       -8.24220       -3.62330
H          0.22290       -6.57740       -4.19620
H          2.90150       -6.83700       -3.94970
H          5.06750       -6.03730       -3.90680
H          5.82600       -6.11710       -2.32780
H          5.25550       -4.52170       -2.95330
