64

P         -1.26380       -0.28250        0.80680
N         -0.99670       -1.31330       -0.65140
C         -2.06640       -1.12600       -1.65290
C          0.25620       -1.48830       -1.39050
C          1.46040       -1.32990       -0.56500
N          1.84990        0.05990       -0.18010
C          1.18730        1.40200       -0.29040
C         -0.16110        1.54960       -0.99530
N         -1.35650        1.24430       -0.15790
C         -1.75120        2.40320        0.64520
N          0.11680       -0.85430        1.89180
C         -0.29260       -1.80060        2.92480
C          1.41990       -0.11990        2.21750
C          2.50460       -0.04900        1.09930
Au        -3.32260        0.00260        2.26790
Br        -2.18730        1.79690        3.75100
C         -4.26500       -1.48690        1.03670
C         -4.67960       -2.67130        1.47990
N         -5.05160        0.23510        3.32900
C         -4.97600        0.34300        4.68610
C         -6.13580        0.40020        5.46660
C         -7.38230        0.46600        4.85030
C         -7.45830        0.46590        3.45910
C         -8.68820        0.66760        2.81380
C         -8.75760        0.73310        1.42120
C         -7.59660        0.61580        0.63900
C         -7.61220        0.66150       -0.86230
O         -6.56000        0.53380       -1.47350
C         -8.86190        0.78820       -1.69220
C         -6.36910        0.44730        1.30260
C         -6.27490        0.32510        2.69900
H         -3.00290       -0.79500       -1.21780
H         -2.22960       -2.06720       -2.21570
H         -1.82950       -0.31600       -2.37430
H          0.35800       -0.90240       -2.32240
H          0.24200       -2.55240       -1.72030
H          2.31690       -1.78390       -1.10350
H          1.32210       -2.02390        0.29740
H          1.91800        2.05310       -0.81240
H          1.07300        1.90780        0.69180
H         -0.16860        1.07390       -1.97780
H         -0.21950        2.62660       -1.28380
H         -1.87130        3.30490        0.01830
H         -0.98510        2.62920        1.41940
H         -2.74940        2.22660        1.09810
H         -1.29070       -1.54780        3.32930
H          0.40560       -1.80530        3.79300
H         -0.26920       -2.81370        2.48380
H          1.22270        0.88870        2.62140
H          2.00180       -0.64270        3.01040
H          3.18180       -0.94320        1.08190
H          3.22420        0.79060        1.25160
H         -4.49880       -1.28260        0.00950
H         -4.54710       -2.97880        2.50730
H         -5.18360       -3.33900        0.78160
H         -4.02250        0.25390        5.18580
H         -6.07310        0.39400        6.54990
H         -8.27720        0.55520        5.45470
H         -9.59630        0.80800        3.38660
H         -9.72660        0.90300        0.98590
H         -9.78680        0.91400       -1.10780
H         -8.97950       -0.13140       -2.30400
H         -8.76950        1.66090       -2.37090
H         -5.48130        0.48390        0.71090
