68

C          0.90100       -0.64300       -0.00200
N         -0.37980       -1.20010       -0.00440
C         -0.91670       -2.63120        0.01400
C         -0.07420       -3.81690        0.00490
C          1.36730       -3.84140       -0.14320
C         -0.56690       -5.12130        0.05560
C         -1.90070       -5.38830        0.08730
C         -2.35390       -6.82160        0.12990
C         -2.78380       -4.32470        0.05030
C         -2.34390       -2.97120        0.01260
C         -3.49250       -1.99730       -0.05850
C         -1.14830       -0.08410       -0.02160
C         -0.38200        1.04130       -0.03230
N          0.93480        0.75690       -0.01760
C          2.06020        1.79750       -0.01460
C          1.87510        3.27060        0.02180
C          0.62450        4.14680        0.08500
C          3.00160        4.15010        0.02350
C          4.30510        3.69600       -0.00510
C          5.51290        4.58830       -0.00280
C          4.51620        2.35780       -0.02720
C          3.47090        1.43850       -0.02920
C          3.99400        0.08950       -0.02570
Au         2.65840       -1.88140       -0.01350
Br         2.53390       -1.75120       -2.62500
C          2.55500       -1.83770        2.17720
C          1.65230       -1.17290        2.90180
N          4.37500       -3.09110       -0.02470
C          5.17360       -3.21370        1.08750
C          6.38680       -3.89860        1.06270
C          6.82510       -4.48950       -0.11470
C          8.15610       -5.18530       -0.16500
C          6.00900       -4.39220       -1.24950
C          4.80640       -3.68200       -1.18600
H          1.48050       -3.18550       -0.97040
H          1.79200       -4.76970       -0.58040
H          1.85580       -3.69060        0.82360
H          0.11580       -5.96650        0.05810
H         -1.48930       -7.52540        0.16550
H         -2.93720       -7.05880       -0.78190
H         -2.96430       -7.00040        1.03680
H         -3.83880       -4.57310        0.04680
H         -4.48720       -2.49220       -0.09670
H         -3.42970       -1.42160       -1.00700
H         -3.51920       -1.36440        0.85020
H         -2.20180        0.01370       -0.03020
H         -0.87050        1.96370       -0.06160
H         -0.38610        3.78910        0.13720
H          0.62470        4.81870       -0.80400
H          0.69120        4.78760        0.99200
H          2.87190        5.22760        0.05070
H          5.24530        5.66070        0.02370
H          6.11770        4.38560       -0.91490
H          6.14320        4.34950        0.88380
H          5.55370        2.02770       -0.03990
H          5.09370       -0.04800       -0.04510
H          3.64170       -0.33350       -0.94300
H          3.68870       -0.29840        0.92570
H          3.23290       -2.38460        2.80020
H          0.87330       -0.56700        2.47510
H          1.70040       -1.23530        3.98660
H          4.98040       -2.72800        2.00600
H          6.99650       -3.93200        1.95840
H          8.66900       -5.15440        0.82190
H          8.81260       -4.67480       -0.90150
H          8.02750       -6.24630       -0.45930
H          6.33360       -4.83860       -2.18260
H          4.23480       -3.62420       -2.08920
