51

C          0.90100       -0.64300       -0.00200
N          0.71880        0.44560       -0.78400
C          1.56640        0.94420       -1.87010
C          2.96610        1.30590       -1.41230
C         -0.49060        0.94320       -0.45420
C         -1.03320        0.14560        0.52750
N         -0.16750       -0.84770        0.80270
C         -0.35470       -1.87340        1.84010
C         -0.39040       -3.28090        1.27090
Au         2.65840       -1.88140       -0.01350
Br         3.72560       -0.38400        1.81050
C          1.77260       -3.12450       -1.52760
C          0.63100       -2.74350       -2.12810
C          4.41590       -3.11990       -0.02500
N          5.61650       -2.85740        0.51980
C          6.14330       -1.69120        1.22930
C          7.61530       -1.70790        1.68680
C          6.57150       -3.93190        0.35190
C          5.80640       -5.06710       -0.18100
N          4.56160       -4.48410       -0.58510
C          3.68990       -5.33340       -1.37650
C          4.13770       -6.76480       -1.69400
H          1.09360        1.83800       -2.33420
H          1.63920        0.15850       -2.65410
H          2.92610        2.10110       -0.64090
H          3.54000        1.67720       -2.28860
H          3.47920        0.40710       -1.01710
H         -0.95640        1.80640       -0.90630
H         -1.99670        0.28200        1.01170
H         -1.31990       -1.69010        2.36090
H          0.45950       -1.79050        2.59250
H         -1.19030       -3.36570        0.50600
H         -0.60880       -3.99620        2.09360
H          0.58880       -3.54960        0.83230
H          1.97060       -4.03040       -1.93960
H          0.09360       -1.83900       -1.91790
H          0.15830       -3.38320       -2.87220
H          5.68800       -1.68860        2.23110
H          6.03120       -0.79380        0.58000
H          7.78560       -2.50300        2.44710
H          7.83330       -0.74220        2.19520
H          8.32300       -1.82350        0.84400
H          7.04960       -4.26200        1.29980
H          7.34520       -3.59400       -0.37430
H          5.58110       -5.82000        0.60960
H          6.39290       -5.52310       -1.00580
H          3.66350       -4.88180       -2.39510
H          2.74520       -5.48310       -0.80950
H          5.08450       -6.78580       -2.27110
H          3.35690       -7.22590       -2.34000
H          4.22060       -7.36640       -0.76740
