75

C          0.90100       -0.64300       -0.00200
N         -0.03420       -0.69920        1.01580
C         -0.13150       -1.46940        2.26340
C         -1.38130       -2.37590        2.28330
C         -1.02670        0.14410        0.68930
C         -0.73490        0.72170       -0.48840
N          0.46180        0.27830       -0.93110
C          0.98370        0.87690       -2.16530
C          1.04810        2.43380       -2.02390
Au         2.65840       -1.88140       -0.01350
Br         2.03490       -2.80120       -2.23310
C          3.14490       -1.02950        1.86500
C          4.16210       -1.40840        2.63820
C          4.41590       -3.11990       -0.02500
N          5.67260       -2.57750        0.09390
C          6.23100       -1.20070        0.09190
C          7.52130       -0.95180        0.67940
C          8.23930       -1.91350        1.59110
C          8.18860        0.26580        0.48000
C          7.61160        1.29850       -0.24220
C          8.34500        2.59330       -0.45840
C          6.33290        1.12930       -0.74970
C          5.62930       -0.08590       -0.60030
C          4.27840       -0.09700       -1.23350
C          6.47620       -3.64690       -0.00890
C          5.74530       -4.77770       -0.10290
N          4.42450       -4.50370       -0.15500
C          3.37800       -5.58460       -0.10840
C          2.08830       -5.47910        0.56740
C          1.50210       -4.27690        1.22160
C          1.23220       -6.60320        0.70660
C          1.56910       -7.84430        0.19530
C          0.70840       -9.06590        0.39750
C          2.73900       -7.96310       -0.51860
C          3.63380       -6.88910       -0.68480
C          4.82690       -7.23650       -1.52920
H         -0.23220       -0.74800        3.10490
H          0.76450       -2.07500        2.44590
H         -2.31960       -1.80260        2.12000
H         -1.46780       -2.87190        3.27310
H         -1.33310       -3.15900        1.50290
H         -1.91860        0.33470        1.27300
H         -1.35940        1.45570       -0.98550
H          0.24390        0.65200       -2.96230
H          1.95250        0.46890       -2.49610
H          0.66780        2.92770       -2.94500
H          0.39670        2.83760       -1.21590
H          2.06540        2.79960       -1.78170
H          2.45720       -0.28200        2.23900
H          4.84980       -2.19080        2.35800
H          4.31630       -0.95110        3.60330
H          7.58260       -2.71660        1.97450
H          8.54440       -1.37420        2.51080
H          9.14430       -2.32150        1.09420
H          9.17180        0.41460        0.91070
H          9.36670        2.56100       -0.02340
H          7.78680        3.42740        0.01490
H          8.44320        2.79440       -1.54720
H          5.89180        1.96300       -1.28890
H          4.05740        0.85060       -1.77070
H          3.53620       -0.09140       -0.43410
H          4.16940       -0.92840       -1.95170
H          7.55340       -3.64790       -0.03280
H          6.24390       -5.70490       -0.07970
H          2.14680       -3.41970        1.18460
H          1.27740       -4.47280        2.29440
H          0.53990       -4.04730        0.70660
H          0.29360       -6.51610        1.25010
H         -0.20490       -8.85220        0.99230
H          1.29550       -9.83670        0.94730
H          0.40890       -9.49130       -0.58210
H          2.96540       -8.93660       -0.93710
H          4.74140       -8.23800       -1.99450
H          5.73210       -7.37860       -0.93300
H          4.91430       -6.49730       -2.35110
