61

P         -1.18740       -0.00480        0.82600
N         -1.07380       -1.27810       -0.42300
C         -2.22300       -1.18700       -1.35100
C          0.12590       -1.55200       -1.22040
C          1.42250       -1.42050       -0.48570
N          1.93700       -0.05490       -0.15180
C          1.38160        1.31410       -0.35130
C          0.14170        1.47110       -1.20230
N         -1.14450        1.28340       -0.46330
C         -1.71810        2.57660       -0.07810
N          0.13330       -0.70460        1.92520
C         -0.35680       -1.51790        3.04000
C          1.47440       -0.05070        2.25100
C          2.56670       -0.12470        1.14700
Au        -3.32260        0.00260        2.26790
Br        -2.51140        2.09590        3.55940
C         -3.99600       -1.73510        1.19580
C         -3.31020       -2.87140        1.27440
N         -5.02620        0.03350        3.51950
C         -5.17680        0.37110        4.88220
N         -4.06670        0.34560        5.85210
C         -2.87160       -0.42480        5.52660
C         -4.32810        0.48100        7.30450
C         -6.49270        0.48040        5.42920
C         -7.61190        0.20350        4.66720
C         -7.44140       -0.21610        3.37130
C         -6.16420       -0.31260        2.82720
H         -3.16090       -0.90100       -0.86120
H         -2.37940       -2.16410       -1.85640
H         -2.07530       -0.39490       -2.11190
H          0.15250       -1.06950       -2.20810
H          0.04420       -2.63220       -1.47910
H          2.20630       -1.93080       -1.08020
H          1.31950       -2.08050        0.40940
H          2.20820        1.91200       -0.79160
H          1.15440        1.84520        0.59850
H          0.21500        0.93900       -2.16020
H          0.20890        2.51790       -1.58280
H         -1.72180        3.26160       -0.96660
H         -1.11550        3.05800        0.71640
H         -2.78050        2.46160        0.19570
H         -1.33140       -1.15430        3.39010
H          0.31880       -1.50110        3.92450
H         -0.38780       -2.57140        2.71130
H          1.33650        0.98530        2.60950
H          2.00920       -0.57500        3.07670
H          3.17800       -1.06170        1.19510
H          3.33160        0.67940        1.27240
H         -4.87020       -1.71060        0.55590
H         -2.42130       -2.92340        1.88000
H         -3.62760       -3.74850        0.72140
H         -3.09860       -1.22630        4.79660
H         -2.05180        0.22260        5.20130
H         -2.42960       -0.93160        6.41330
H         -5.23000       -0.06960        7.64770
H         -4.37400        1.54570        7.60450
H         -3.55280       -0.00250        7.94090
H         -6.71470        0.71660        6.45830
H         -8.60410        0.28440        5.10230
H         -8.32410       -0.42440        2.76940
H         -6.12620       -0.56790        1.79400
