63

C          0.90100       -0.64300       -0.00200
N         -0.13370       -0.78400        0.86010
C         -0.28470       -1.79060        1.92100
C         -0.51530       -1.10640        3.27210
C         -1.45530       -2.73940        1.61640
C         -1.03220        0.16370        0.51600
C         -0.53310        0.87570       -0.55120
N          0.66770        0.36070       -0.88910
C          1.52880        0.83480       -1.98960
C          0.78420        0.71440       -3.32810
C          1.97570        2.29100       -1.77100
Au         2.65840       -1.88140       -0.01350
Br         2.08480       -2.61910       -2.30950
C          3.20370       -1.32280        1.93140
C          2.69570       -0.27920        2.57930
C          4.41590       -3.11990       -0.02500
N          4.38180       -4.40340       -0.20770
C          3.17540       -5.23710       -0.15030
C          2.96190       -6.01880       -1.44240
C          3.28200       -6.24680        1.02730
C          5.71420       -4.96580       -0.13460
C          6.60800       -3.75490       -0.21640
N          5.76220       -2.67320        0.23960
C          6.26960       -1.28940        0.29330
C          6.82570       -0.99530        1.69500
C          7.42960       -1.04290       -0.71200
H          0.63590       -2.41110        1.97400
H         -1.44650       -0.50240        3.24910
H          0.31900       -0.42860        3.51900
H         -0.59810       -1.86400        4.07830
H         -2.41870       -2.18860        1.56120
H         -1.53840       -3.50610        2.41800
H         -1.28930       -3.26860        0.65420
H         -1.98650        0.32710        0.99870
H         -1.01880        1.70400       -1.05090
H          2.45110        0.21880       -2.03650
H         -0.14480        1.32490       -3.32440
H          0.50670       -0.34220       -3.51650
H          1.42440        1.06490       -4.16590
H          1.11000        2.98580       -1.72450
H          2.63070        2.61580       -2.61080
H          2.56180        2.38000       -0.83260
H          3.97970       -1.90070        2.40910
H          1.99120        0.39200        2.10720
H          3.04220       -0.05320        3.58300
H          2.27740       -4.61120        0.04840
H          3.86460       -6.60500       -1.70830
H          2.71820       -5.32680       -2.26520
H          2.10850       -6.72200       -1.31960
H          4.13610       -6.94940        0.89450
H          2.36680       -6.87270        1.10080
H          3.41280       -5.72360        1.99930
H          5.94750       -5.70230       -0.93180
H          5.84570       -5.42550        0.86940
H          6.82350       -3.57490       -1.29600
H          7.55980       -3.87250        0.34290
H          5.46600       -0.56320        0.04620
H          7.55120       -1.78340        1.99520
H          6.01760       -0.94440        2.44510
H          7.36210       -0.02010        1.71420
H          8.30160       -1.70390       -0.50410
H          7.80290        0.00240       -0.63280
H          7.10080       -1.20160       -1.75930
