50

C          1.02400       -0.65300       -0.05500
N          0.98770        0.64790       -0.20990
C          2.04000        1.61600       -0.49810
C          3.11280        1.64730        0.58080
C          2.60970        1.48200       -1.90840
C         -0.34130        1.16550        0.03470
C         -1.22070       -0.04710       -0.00250
N         -0.30810       -1.12930        0.25870
C         -0.86870       -2.38170        0.76940
C         -1.90140       -2.96940       -0.21420
C          0.15280       -3.42980        1.17810
Au         2.78020       -1.86970       -0.29550
Br         3.34130       -1.55570        2.21340
C          2.31440       -2.13040       -2.37820
C          1.05630       -2.06710       -2.81450
N          4.49560       -3.05820       -0.53040
C          5.60690       -3.27760        0.34200
C          5.86920       -2.72400        1.71860
C          6.71680       -4.07480       -0.04400
C          6.77810       -4.67950       -1.26500
C          5.72010       -4.52880       -2.10890
C          4.62050       -3.75690       -1.73060
H          1.57470        2.63060       -0.47490
H          3.71170        0.71850        0.56460
H          2.63100        1.77970        1.57540
H          3.78380        2.51670        0.41020
H          3.18950        0.54840       -2.02620
H          3.27150        2.35260       -2.11300
H          1.78250        1.51450       -2.65020
H         -0.68670        1.90670       -0.71640
H         -0.33450        1.61950        1.04990
H         -1.58780       -0.18570       -1.04670
H         -2.07600        0.03830        0.70290
H         -1.42840       -2.12180        1.69780
H         -1.41760       -3.30390       -1.15270
H         -2.68580       -2.22250       -0.46770
H         -2.42880       -3.83120        0.24710
H          0.73520       -3.78740        0.30830
H         -0.39510       -4.28970        1.62980
H          0.81730       -3.01850        1.96210
H          3.05200       -2.22540       -3.16190
H          0.23020       -1.95190       -2.13390
H          0.83630       -2.16230       -3.87260
H          5.87710       -1.61630        1.69300
H          6.86280       -2.97220        2.15150
H          5.19830       -3.22300        2.44820
H          7.57170       -4.23800        0.60440
H          7.63820       -5.27610       -1.54260
H          5.74350       -5.02280       -3.07280
H          3.88750       -3.83000       -2.47570
