46

C          1.02400       -0.65300       -0.05500
N          1.05170        0.62060       -0.12030
C          2.25330        1.39890       -0.31010
C         -0.25980        1.18990        0.07550
C         -1.18880       -0.03730        0.15220
N         -0.27420       -1.15670        0.19340
C         -0.64000       -2.52690        0.40230
C         -1.99410       -2.88040        0.60290
C         -2.36150       -4.20760        0.84420
C         -1.37990       -5.20920        0.88450
C         -0.04340       -4.87570        0.68700
C          0.32100       -3.55180        0.44440
Au         2.78020       -1.86970       -0.29550
Br         3.17830       -1.80080        2.26280
C          2.44970       -1.92700       -2.41920
C          1.52560       -1.20740       -3.06130
N          4.49560       -3.05820       -0.53040
C          5.26410       -3.01900       -1.67220
O          5.09440       -1.97620       -2.52840
C          6.07610       -1.39090       -3.30990
C          6.37130       -3.87720       -1.81170
C          6.65450       -4.80270       -0.81740
C          5.89610       -4.80840        0.34440
C          4.86110       -3.88420        0.49690
H          3.14490        0.74320       -0.41750
H          2.40620        2.05800        0.57090
H          2.15510        2.02640       -1.22010
H         -0.55500        1.86650       -0.75380
H         -0.25220        1.73940        1.04220
H         -1.80500       -0.13500       -0.77030
H         -1.82910        0.01970        1.05400
H         -2.77840       -2.13390        0.58240
H         -3.39680       -4.46900        0.99770
H         -1.66750       -6.23950        1.07470
H          0.71380       -5.64940        0.71860
H          1.36500       -3.34380        0.30580
H          2.99300       -2.63500       -3.03020
H          0.87300       -0.50840       -2.56260
H          1.39550       -1.33930       -4.13130
H          5.66280       -0.48180       -3.79630
H          6.43160       -2.08800       -4.09190
H          6.93120       -1.06100       -2.67400
H          7.02550       -3.82000       -2.67090
H          7.47870       -5.49370       -0.93490
H          6.09650       -5.53740        1.11940
H          4.26120       -3.96960        1.38350
