30

C         -0.23170       -1.13430        0.02950
N         -1.17000       -0.05850        0.10760
C         -2.63090        0.15960        0.33770
C         -0.44880        1.08910        0.03220
Cl        -1.06530        2.74900        0.06580
C          0.85840        0.80230       -0.02060
Cl         2.15340        2.00730       -0.06050
N          1.01370       -0.53070        0.00070
C          2.34700       -1.08350       -0.03370
Au        -0.48800       -3.48440       -0.00980
Br        -0.62980       -3.47420       -2.59880
C         -0.36470       -3.47190        2.13620
C         -0.20240       -2.40150        2.87240
N         -0.69310       -5.53620        0.03120
C         -1.06640       -6.34520       -0.98430
O         -1.05750       -7.61160       -0.62930
C         -0.66460       -7.66710        0.61890
C         -0.44440       -6.39030        1.05000
H         -3.16790       -0.70630        0.75330
H         -3.11380        0.56340       -0.59210
H         -2.82350        0.92940        1.11650
H          3.14640       -0.34030       -0.16990
H          2.42600       -1.76880       -0.90230
H          2.56430       -1.45900        0.98490
H         -0.68910       -4.26000        2.77760
H         -0.19550       -1.45320        2.38840
H         -0.23460       -2.44120        3.95760
H         -1.36560       -6.02040       -1.96500
H         -0.51360       -8.56630        1.20180
H         -0.06630       -6.18520        2.02660
