43

C         -0.23000       -1.19060        0.01960
N         -1.22880       -0.05230        0.05140
C         -2.80360       -0.10300        0.07440
C         -0.40810        1.17500        0.01710
C         -0.68200        2.74720        0.02980
C          0.91860        0.72750       -0.02600
C          2.14560        1.59050       -0.05760
N          1.00860       -0.64100       -0.05130
C          2.29070       -1.32230       -0.05290
Au        -0.53370       -3.49040        0.03190
Br         0.71250       -3.58050       -2.26400
C         -1.50890       -3.29880        1.85950
C         -1.64300       -2.14880        2.48440
N         -0.75970       -5.56120        0.00100
C         -1.54530       -6.21990        0.92920
C         -1.51000       -7.59790        1.06870
C         -0.93770       -8.35680        0.10160
O         -0.89010       -9.72150        0.23270
C         -1.39650      -10.38560        1.35010
C         -0.42170       -7.68590       -1.00960
C         -0.21000       -6.30700       -0.97900
H         -3.18830       -1.13440        0.07830
H         -3.26850        0.39690       -0.79530
H         -3.22250        0.38890        0.96890
H         -1.74390        2.91240        0.05930
H         -0.27730        3.25980       -0.86150
H         -0.22990        3.25140        0.90330
H          1.88960        2.63550       -0.05060
H          2.72060        1.37350       -0.95970
H          2.77200        1.37380        0.80890
H          3.10340       -0.59670       -0.06550
H          2.37500       -1.93540       -0.93480
H          2.40570       -1.93810        0.83200
H         -1.87800       -4.14440        2.36110
H         -1.26180       -1.27660        2.05970
H         -2.13500       -2.07340        3.41640
H         -2.19250       -5.73340        1.57960
H         -1.92600       -8.09330        1.90010
H         -1.25860      -11.45700        1.28090
H         -2.46620      -10.18010        1.44720
H         -0.90240      -10.03190        2.26040
H         -0.15680       -8.24090       -1.85980
H          0.36060       -5.85080       -1.72320
