82

P          0.92500        0.06100       -0.02570
C         -0.07490        1.27410       -1.24970
C         -1.63700        1.28520       -1.37400
C          0.24070        2.77130       -0.90760
C          0.37840        1.09630       -2.72870
C          0.54860       -1.75360       -0.77420
C          1.24040       -2.03380       -2.13110
C          1.02630       -2.93880        0.10810
C         -0.95970       -2.08150       -0.94750
C          0.20190        0.54360        1.72700
C         -1.34250        0.40600        1.77700
C          0.73410       -0.40050        2.81350
C          0.51940        1.96160        2.26920
Au         3.38500        0.06100       -0.02570
Br         3.38500       -1.85560        1.71640
C          3.38500        1.65190       -1.47190
C          3.39160        2.99160       -1.52540
P          5.84500        0.06100       -0.02570
N          6.82230       -1.12830       -0.97440
C          6.24690       -1.20160       -2.33010
C          8.29840       -1.26210       -1.06510
C          9.06230       -1.02500        0.20280
N          8.86050        0.30640        0.78060
C          8.85450        1.59080        0.03730
C          7.81250        1.74330       -1.13630
N          6.35990        1.58190       -0.83050
C          5.92360        2.74010       -0.02850
N          6.43500       -0.52650        1.59780
C          6.22540       -1.78810        2.31120
C          7.12700        0.47530        2.43270
C          8.62520        0.34690        2.22500
H         -2.17830        1.66080       -0.51990
H         -2.09470        0.36490       -1.71090
H         -1.93290        2.02140       -2.16010
H         -0.43060        3.17540       -0.14510
H          0.04820        3.45960       -1.76130
H          1.24910        2.91550       -0.54300
H         -0.11810        0.23180       -3.19170
H          1.45720        1.03400       -2.89260
H          0.02640        1.92270       -3.37610
H          2.33130       -1.86520       -2.06050
H          0.84750       -1.48940       -2.98580
H          1.07620       -3.09460       -2.43420
H          2.10610       -3.10370        0.02130
H          0.65900       -3.92050       -0.27560
H          0.65180       -2.90960        1.14030
H         -1.44180       -1.49620       -1.72560
H         -1.52110       -2.07800       -0.00000
H         -1.10850       -3.11690       -1.32980
H         -1.72160       -0.49260        1.28040
H         -1.84940        1.29460        1.38890
H         -1.73540        0.37170        2.81440
H          0.53420       -1.45500        2.59400
H          0.23530       -0.21050        3.78980
H          1.80710       -0.20920        2.99690
H          0.01290        2.77760        1.75200
H          1.60320        2.16490        2.31490
H          0.09790        2.06840        3.29870
H          3.48600        1.18940       -2.44700
H          3.35450        3.64070       -0.66280
H          3.44380        3.44900       -2.50870
H          5.14100       -1.30340       -2.29110
H          6.63750       -2.08410       -2.88140
H          6.49230       -0.28950       -2.91600
H          8.75990       -0.69210       -1.88780
H          8.51240       -2.31340       -1.37110
H         10.14530       -1.21550        0.04310
H          8.71460       -1.82650        0.91510
H          9.87150        1.75440       -0.37000
H          8.70110        2.41720        0.75500
H          8.05930        1.16340       -2.01610
H          7.97230        2.77140       -1.52820
H          5.88470        3.64320       -0.67470
H          6.61120        3.00400        0.78740
H          4.94370        2.56830        0.45580
H          5.50140       -1.59390        3.13880
H          7.13450       -2.08630        2.87230
H          5.95170       -2.61590        1.63730
H          6.80240        1.48100        2.17610
H          6.90350        0.35680        3.51560
H          8.98740       -0.58960        2.70680
H          9.18460        1.17040        2.71180
