33

C         -0.18800       -1.35400       -0.00200
N         -0.57200       -0.47780       -0.95750
C         -1.17630       -0.74260       -2.25310
C         -0.21150        0.74400       -0.51670
Cl        -0.43010        2.26000       -1.37840
C          0.39280        0.60450        0.70930
Cl         1.03490        1.90280        1.70630
N          0.42610       -0.71690        1.02900
C          0.95300       -1.31530        2.24000
Au        -0.49020       -3.48260       -0.01010
Br         1.83960       -3.80930       -1.09340
C         -2.42410       -3.21150        0.88930
C         -3.28800       -2.28830        0.47940
O         -0.77830       -5.51230       -0.01770
C         -1.67180       -5.87000       -1.02330
C         -0.98040       -5.50000       -2.35230
C         -1.80290       -7.39840       -0.99250
H         -1.31080       -1.84060       -2.40280
H         -0.47250       -0.38060       -3.04930
H         -2.13430       -0.21390       -2.36090
H          1.32320       -0.53650        2.93990
H          1.79930       -1.99310        1.99430
H          0.15370       -1.88470        2.75900
H         -2.82090       -3.99750        1.52440
H         -3.05020       -1.62990       -0.34480
H         -4.31430       -2.34630        0.84100
H         -2.65690       -5.37640       -0.92420
H          0.02770       -5.98030       -2.41140
H         -0.82590       -4.40400       -2.42430
H         -1.56130       -5.83810       -3.23450
H         -0.79410       -7.87410       -1.05150
H         -2.40000       -7.76670       -1.85360
H         -2.27850       -7.72670       -0.04790
