81

P          0.95330       -0.08060        0.03640
C         -0.04660       -1.76800        0.41990
C         -1.60050       -1.86410        0.39170
C          0.38600       -2.91890       -0.54760
C          0.28390       -2.27200        1.84280
C          0.56000        1.05660        1.62260
C          1.23880        0.57170        2.92640
C          1.03170        2.53010        1.51170
C         -0.95520        1.22750        1.91650
C          0.22540        0.43000       -1.71100
C         -1.32640        0.56760       -1.68720
C          0.75800        1.80920       -2.12610
C          0.53850       -0.47870       -2.92880
Au         3.41330       -0.08060        0.03640
Br         3.41330        2.47150       -0.40510
C          3.41330       -2.19910        0.40290
C          3.33230       -3.02440        1.45860
P          5.87330       -0.08060        0.03640
C          6.90500       -0.53020       -1.46420
C          7.10630        0.38160       -2.53320
C          7.75140        0.03780       -3.71500
C          8.21290       -1.25530       -3.91170
F          8.81840       -1.60020       -5.07120
C          8.02170       -2.20080       -2.90750
C          7.38090       -1.84910       -1.71620
C          6.44880        1.69320        0.29820
C          7.09470        1.99420        1.52130
C          7.60590        3.25670        1.82560
C          7.44550        4.30360        0.92930
F          7.92490        5.52750        1.23530
C          6.77760        4.07760       -0.27890
C          6.29540        2.79790       -0.58400
C          6.59000       -1.50760        1.07670
C          6.14410       -2.84620        1.08640
C          6.54670       -3.77250        2.05780
C          7.50480       -3.42820        2.99830
F          7.87600       -4.31120        3.95930
C          8.11620       -2.18780        2.90740
C          7.67510       -1.25440        1.96010
H         -2.05440       -1.82830       -0.59470
H         -2.13170       -1.19750        1.07160
H         -1.90820       -2.88400        0.72470
H         -0.02560       -2.82850       -1.54790
H         -0.01390       -3.90420       -0.22200
H          1.44920       -3.07650       -0.66150
H         -0.36740       -1.80540        2.60160
H          1.30100       -2.05320        2.12070
H          0.10290       -3.36360        1.97180
H          2.33410        0.47540        2.78070
H          0.84780       -0.34430        3.36110
H          1.06240        1.30470        3.74710
H          2.10970        2.62730        1.67920
H          0.65430        3.14910        2.35710
H          0.66100        3.05690        0.62180
H         -1.44630        0.30280        2.21450
H         -1.49200        1.75310        1.11020
H         -1.12250        1.88530        2.79890
H         -1.72400        0.99010       -0.76280
H         -1.83600       -0.37580       -1.90160
H         -1.71520        1.19600       -2.51480
H          0.55840        2.57930       -1.37590
H          0.25430        2.17170       -3.05220
H          1.82890        1.74530       -2.38170
H         -0.00260       -1.42820       -2.93700
H          1.62190       -0.64440       -3.06980
H          0.13270       -0.01080       -3.85650
H          3.51760       -2.69100       -0.56030
H          3.26610       -2.71770        2.48980
H          3.35980       -4.09620        1.24120
H          6.77250        1.37650       -2.52960
H          7.87450        0.77610       -4.49980
H          8.35260       -3.21580       -3.06060
H          7.24980       -2.65960       -1.03830
H          7.20300        1.28010        2.30550
H          8.11880        3.41630        2.76360
H          6.61590        4.90220       -0.94010
H          5.76860        2.73530       -1.51590
H          5.47460       -3.21350        0.35650
H          6.10270       -4.75980        2.08190
H          8.92220       -1.93640        3.58620
H          8.22840       -0.34620        1.94710
