54

P          0.92840       -0.05930        0.03700
C         -0.05460       -0.54300       -1.63960
C         -1.60090       -0.54280       -1.72520
C          0.35030        0.37300       -2.84470
C          0.32940       -1.97290       -2.08340
C          0.55460       -1.60580        1.23380
C          1.26900       -2.91540        0.81520
C          1.00970       -1.41520        2.70430
C         -0.95310       -1.93370        1.39960
C          0.18120        1.69690        0.47480
C         -1.36610        1.65950        0.64510
C          0.72470        2.18930        1.82380
C          0.46830        2.85860       -0.50860
Au         3.38840       -0.05930        0.03700
Br         3.38840        0.50620        2.56450
C          3.38840       -0.52870       -2.06120
C          3.58260       -1.65460       -2.74830
C          5.53840       -0.05930        0.03700
N          6.28680       -0.30420       -1.05610
C          7.55120       -0.21270       -0.60960
C          7.52510        0.08300        0.73110
O          6.27240        0.16850        1.10380
H         -2.06090        0.44280       -1.78400
H         -2.13310       -1.15370       -0.99530
H         -1.91360       -0.96760       -2.71030
H         -0.06870        1.37300       -2.79990
H         -0.06900       -0.01290       -3.80060
H          1.40100        0.47970       -3.03430
H         -0.28890       -2.72870       -1.56920
H          1.37010       -2.20320       -1.91500
H          0.12030       -2.16800       -3.15750
H          2.35840       -2.74990        0.71120
H          0.89510       -3.40740       -0.07750
H          1.11030       -3.70130        1.58960
H          2.08780       -1.56750        2.81910
H          0.63610       -2.23140        3.36430
H          0.62520       -0.50000        3.17690
H         -1.42410       -2.29680        0.48980
H         -1.52500       -1.12030        1.87910
H         -1.10440       -2.78860        2.10150
H         -1.72840        0.79630        1.20720
H         -1.90520        1.73100       -0.29990
H         -1.75320        2.55500        1.17430
H          0.51700        1.48930        2.64010
H          0.23180        3.14070        2.12990
H          1.79720        2.42770        1.74020
H         -0.09450        2.80100       -1.44190
H          1.54790        2.99510       -0.69890
H          0.06510        3.81020       -0.08740
H          3.37110        0.38220       -2.64430
H          3.70800       -2.62570       -2.29140
H          3.60640       -1.57270       -3.83630
H          8.43100       -0.34400       -1.22510
H          8.37080        0.22260        1.38580
