18

C         -0.32800       -1.08200        0.00300
N         -0.91830       -0.09370       -0.68330
H         -1.81830       -0.16720       -1.23470
C         -0.24370        1.02380       -0.37790
Cl        -0.68080        2.64200       -0.86390
C          0.83890        0.66980        0.40750
Cl         2.13460        1.70510        0.95490
N          0.73760       -0.63740        0.68620
Au        -0.94440       -3.14170        0.01670
Br        -0.75210       -3.21630       -2.56510
C         -1.10400       -3.07970        2.15980
C         -0.98410       -1.99320        2.92760
C         -1.56080       -5.20140        0.03030
O         -1.91000       -6.36830        0.03800
H          1.41700       -1.22060        1.22380
H         -1.30600       -4.02500        2.65350
H         -0.80020       -1.00930        2.53050
H         -1.08130       -2.08440        4.00410
