36

C         -0.23640       -1.00080        0.02870
N         -1.12920        0.04180        0.45060
C         -2.44790       -0.03680        1.16300
C         -0.38650        1.23690        0.17730
Cl        -0.74360        2.96670        0.49450
C          0.79590        0.90700       -0.44900
Cl         2.12090        1.96670       -1.01250
N          0.89040       -0.42630       -0.55790
C          2.02270       -0.94280       -1.37700
Au        -0.51340       -3.25590        0.01400
Br        -2.57280       -2.58300       -1.62570
C          1.30280       -3.97870        0.67980
C          1.88850       -3.21770        1.45740
N         -0.77970       -5.41480       -0.00050
C         -0.00670       -6.37710        0.70000
N         -0.09700       -7.73670        0.57150
C         -1.06280       -8.29860       -0.19550
O         -1.11000       -9.65660       -0.40300
C         -0.18440      -10.53690        0.14890
C         -1.98730       -7.44470       -0.77880
C         -1.79170       -6.02550       -0.71050
H         -2.80240       -1.06070        1.46180
H         -3.29930        0.42340        0.59500
H         -2.49460        0.36050        2.19790
H          2.91270       -0.34820       -1.60720
H          1.74330       -1.80180       -2.06790
H          2.90290       -1.05740       -0.67680
H          1.97310       -4.79790        0.55590
H          1.14790       -2.49510        1.68240
H          2.98800       -3.26700        1.69200
H          0.61310       -6.07790        1.54350
H         -0.39620      -11.59760       -0.09140
H         -0.16060      -10.43240        1.25590
H          0.81180      -10.28120       -0.25030
H         -2.79610       -7.84520       -1.31820
H         -2.38930       -5.44220       -1.35010
