33

N         -1.45110       -0.05610       -0.13140
C         -0.89090        1.07060        0.40320
C          0.50350        1.20060        0.49350
C          1.31500        0.19280       -0.02600
F          2.66680        0.31910        0.00960
C          0.73050       -0.94210       -0.58770
C         -0.66660       -1.06290       -0.60700
Au        -3.47560       -0.20170       -0.28210
Br        -3.27750        1.00070       -2.56740
C         -3.64020       -1.19990        1.61510
C         -2.57460       -1.48960        2.36480
N         -5.52960       -0.24530       -0.45750
C         -6.15570        0.77060       -1.12490
C         -7.56110        0.87210       -1.14840
O         -8.20580        1.94700       -1.67260
C         -7.58770        3.06770       -2.18780
C         -8.31780       -0.13870       -0.56080
C         -7.67960       -1.20580        0.05770
C         -6.28750       -1.22860        0.12050
H         -1.52120        1.85230        0.80610
H          0.95080        2.07500        0.95110
H          1.35340       -1.71920       -1.01080
H         -1.12430       -1.93000       -1.05710
H         -4.58480       -1.46400        2.05970
H         -1.56860       -1.24500        2.05880
H         -2.71090       -1.96890        3.33020
H         -5.57820        1.56690       -1.54630
H         -8.35210        3.83640       -2.41690
H         -7.03950        2.80260       -3.11510
H         -6.88460        3.50070       -1.44070
H         -9.39960       -0.09390       -0.56920
H         -8.25680       -2.00420        0.50490
H         -5.83960       -2.08250        0.59070
