32

N         -0.65900       -1.22800       -0.05100
C          0.58970       -1.00390       -0.54280
Cl         1.40410       -2.26200       -1.44980
C          1.19650        0.24550       -0.36780
C          0.52420        1.23880        0.34730
C         -0.74870        0.98070        0.86150
C         -1.33510       -0.26850        0.63880
Au        -1.57560       -3.10440       -0.27260
Br        -0.34600       -3.95480        1.84230
C         -2.59640       -2.39840       -2.02820
C         -2.56420       -1.13320       -2.45250
N         -2.49230       -4.98070       -0.49410
C         -1.81540       -6.10620       -0.09340
C         -2.35310       -7.39390       -0.31360
C         -1.56710       -8.61730        0.05990
C         -3.60070       -7.51490       -0.90640
C         -4.29660       -6.38700       -1.29210
C         -3.74260       -5.12320       -1.07050
H          2.17720        0.44560       -0.77800
H          0.98530        2.20380        0.50760
H         -1.27330        1.73380        1.43620
H         -2.31270       -0.48730        1.04280
H         -3.15290       -3.08270       -2.65060
H         -2.02450       -0.35690       -1.93430
H         -3.09130       -0.86110       -3.36210
H         -0.84000       -6.02630        0.33990
H         -0.58590       -8.35860        0.51850
H         -1.36890       -9.21490       -0.85480
H         -2.14390       -9.23090        0.77970
H         -4.02330       -8.49000       -1.09520
H         -5.26620       -6.46170       -1.75680
H         -4.30380       -4.26380       -1.38630
