41

N         -1.48260       -0.31770       -0.05630
C         -0.74760       -1.46010        0.05830
C          0.61820       -1.38700        0.35020
C          1.20890       -0.12660        0.65010
C          2.65220       -0.03030        1.05130
C          0.42470        1.01080        0.57930
C         -0.91380        0.89330        0.19030
Au        -3.47560       -0.20170       -0.28210
Br        -3.73610       -0.61330        2.26170
C         -3.25940        0.13990       -2.39370
C         -2.37690       -0.55750       -3.10440
P         -5.79930        0.13510       -0.67500
N         -6.97590        0.35490        0.64170
C         -6.85840        1.72170        1.15350
C         -8.38100       -0.05400        0.42700
O         -7.03510        0.68200       -1.73040
C         -6.73900        0.30980       -3.06270
O         -5.84090       -1.44420       -0.02900
C         -5.57500       -2.35230       -1.08490
H         -1.22440       -2.41380       -0.13740
H          1.21210       -2.29240        0.38620
H          3.15790       -1.01930        1.03040
H          2.71010        0.36080        2.08310
H          3.19070        0.66940        0.37960
H          0.83670        1.97990        0.83030
H         -1.53640        1.79160        0.18710
H         -3.87670        0.84830       -2.89900
H         -1.78690       -1.33310       -2.63110
H         -2.29670       -0.40420       -4.17600
H         -5.78750        1.97330        1.33440
H         -7.37180        1.81090        2.13060
H         -7.27990        2.45380        0.43150
H         -8.43290       -1.12680        0.16370
H         -8.88540        0.56470       -0.33970
H         -8.94600        0.08710        1.37560
H         -7.47250        0.79910       -3.73260
H         -6.80500       -0.78180       -3.22230
H         -5.79510        0.72270       -3.41950
H         -5.42030       -3.36910       -0.66680
H         -4.63430       -2.11390       -1.63120
H         -6.43350       -2.44040       -1.78530
