72

P          0.96000        0.07880       -0.04670
O         -0.37720       -0.78290        0.56370
C         -0.03280       -2.16830        0.46620
O          0.57140        1.61440        0.59610
C          0.58630        1.58740        1.99950
O          0.63550       -0.34040       -1.68260
C         -0.73560       -0.07460       -1.96350
Au         3.42000        0.07880       -0.04670
Br         3.42000        2.12460       -1.63510
C          3.42000       -1.61940        1.27180
C          3.70260       -2.91500        1.08340
P          5.88000        0.07880       -0.04670
C          7.06760        1.50000       -0.77750
C          8.65050        1.59620       -0.82540
C          9.38520        1.14530       -2.11930
C          8.76200        1.72710       -3.38270
C          7.25750        1.49770       -3.39260
C          6.67600        2.16330       -2.14750
C          6.55100       -0.27300        1.76680
C          6.21400       -1.58800        2.52230
C          6.89690       -2.79460        1.88220
C          8.41880       -2.65970        2.06130
C          8.94620       -1.31620        1.54140
C          8.08590       -0.13420        2.04890
C          6.07500       -1.30780       -1.33220
C          5.09810       -2.12540       -2.03400
C          3.58830       -2.06730       -2.00520
C          5.53570       -3.15450       -2.90390
C          6.87690       -3.39920       -3.13560
C          7.81380       -2.60560       -2.51290
C          7.40320       -1.60040       -1.64470
H         -0.46200       -2.74120        1.31430
H          1.04750       -2.40460        0.49960
H         -0.42170       -2.60800       -0.48590
H         -0.08820        2.39620        2.35300
H          1.60780        1.80050        2.37270
H          0.17480        0.65520        2.44250
H         -0.90950       -0.12770       -3.05500
H         -1.06040        0.93220       -1.61830
H         -1.41380       -0.84870       -1.53930
H          3.07350       -1.34000        2.26310
H          4.04880       -3.34910        0.16970
H          3.59050       -3.58770        1.93170
H          6.78720        2.26510       -0.01980
H          9.20810        1.20200        0.01470
H          8.85770        2.69600       -0.78710
H          9.43990        0.06380       -2.24530
H         10.44150        1.48000       -2.06750
H          9.23670        1.29300       -4.29010
H          8.93900        2.82360       -3.40350
H          6.97040        0.42620       -3.43290
H          6.84580        1.99380       -4.30310
H          5.65710        2.26750       -2.33690
H          7.01910        3.22900       -2.14560
H          6.11070        0.55910        2.34590
H          5.17120       -1.72650        2.72220
H          6.56560       -1.51560        3.57990
H          6.61130       -2.87610        0.81300
H          6.56980       -3.72410        2.39430
H          8.94580       -3.50730        1.56870
H          8.63540       -2.70970        3.14900
H          8.98560       -1.36050        0.47520
H         10.00550       -1.19430        1.84130
H          8.44150        0.86410        1.79170
H          8.23970       -0.12550        3.15230
H          3.16650       -1.36240       -1.33230
H          3.16490       -3.06270       -1.74800
H          3.20620       -1.81800       -3.01630
H          4.81940       -3.79600       -3.42180
H          7.18420       -4.19700       -3.80020
H          8.86830       -2.77130       -2.69950
H          8.13130       -1.01210       -1.20640
