75

P          0.97280       -0.07530        0.05990
O         -0.42930        0.68510       -0.55960
C         -0.16380        2.09060       -0.54860
O          0.63550       -1.64140       -0.53580
C          0.66130       -1.65700       -1.94090
O          0.64700        0.36800        1.67920
C         -0.72270        0.06530        1.98960
Au         3.43280       -0.07530        0.05990
Br         3.43280       -2.04490        1.74180
C          3.43280        1.55970       -1.33620
C          3.31030        2.84330       -1.01340
P          5.89280       -0.07530        0.05990
C          7.08400       -0.70540        1.49370
C          6.96640        0.22010        2.74790
C          5.85590       -0.14490        3.76470
C          6.14610       -1.51470        4.40190
C          6.32410       -2.57720        3.32660
C          7.25600       -2.14030        2.18710
C          6.00490       -1.73210       -0.86420
C          5.35100       -1.56370       -2.26190
C          6.31630       -0.92240       -3.29620
C          7.53240       -1.82790       -3.52580
C          8.28840       -2.04370       -2.22780
C          7.35550       -2.52750       -1.11550
C          6.64770        1.59250       -0.60600
C          6.35920        2.99850        0.03610
C          7.27250        3.53500        1.17090
C          8.75800        3.36950        0.84050
C          9.06570        1.95380        0.35790
C          8.18280        1.60190       -0.87060
H         -0.61990        2.58490       -1.42800
H          0.90280        2.36780       -0.62050
H         -0.54560        2.56240        0.38080
H         -0.03630       -2.45440       -2.27740
H          1.67920       -1.91140       -2.29690
H          0.28770       -0.72630       -2.42060
H         -0.87390        0.12320        3.08260
H         -1.02630       -0.94530        1.65730
H         -1.41340        0.83470        1.58160
H          3.53540        1.29980       -2.38450
H          3.18750        3.14990        0.01700
H          3.32910        3.59560       -1.79790
H          8.05790       -0.58270        0.99870
H          6.76590        1.21440        2.43270
H          7.92320        0.21700        3.32280
H          4.86190       -0.13210        3.27810
H          5.83080        0.60430        4.59100
H          5.34010       -1.80950        5.12360
H          7.10410       -1.42670        4.97210
H          5.37940       -2.88770        2.92510
H          6.71100       -3.50310        3.80450
H          7.31380       -3.00830        1.53210
H          8.25210       -2.08170        2.69530
H          5.38010       -2.40280       -0.24500
H          4.41550       -0.97590       -2.18430
H          5.07420       -2.56360       -2.66040
H          6.66750        0.07260       -2.97120
H          5.79700       -0.79430       -4.26740
H          8.22640       -1.38520       -4.27430
H          7.18550       -2.80980       -3.91200
H          8.81450       -1.15250       -1.92230
H          9.09590       -2.79730       -2.38420
H          8.01800       -2.64800       -0.26150
H          7.04270       -3.55120       -1.42360
H          6.15430        1.64550       -1.59070
H          5.32730        3.10590        0.36220
H          6.52940        3.72910       -0.79170
H          7.04830        3.10180        2.13830
H          7.06640        4.61100        1.34040
H          9.37520        3.61300        1.73600
H          9.03510        4.07690        0.03170
H          8.95230        1.26070        1.19880
H         10.13600        1.91500        0.06100
H          8.50730        0.68150       -1.31400
H          8.40340        2.38280       -1.63410
