37

N         -1.42270       -0.00440        0.02870
C         -0.96470        0.97370        0.88010
C          0.39000        1.29920        0.96970
C          1.30480        0.58320        0.22030
C          0.85980       -0.49770       -0.54310
C         -0.51790       -0.78780       -0.62000
Au        -3.45160       -0.22000       -0.27050
Br        -3.42370        2.15090       -1.05960
C         -3.42970       -2.23760        0.40660
C         -2.38480       -2.94330        0.86050
N         -5.47880       -0.32740       -0.54870
C         -6.30240       -1.40170       -0.48340
N         -7.59620       -1.04000       -0.66430
C         -8.75520       -1.89230       -0.78940
C         -8.62870       -3.29110       -0.71350
C         -9.71730       -4.11600       -1.00070
C        -10.95890       -3.56030       -1.30570
C        -11.12050       -2.17580       -1.31310
C        -10.02370       -1.34520       -1.08380
C         -7.57840        0.30190       -0.79230
C         -6.27950        0.72470       -0.76750
H         -1.64820        1.50510        1.52450
H          0.71920        2.12500        1.59360
H          2.35080        0.86710        0.24650
H          1.58030       -1.07050       -1.10760
H         -0.84610       -1.55580       -1.30170
H         -4.36210       -2.76240        0.53720
H         -1.40360       -2.56420        0.99620
H         -2.46380       -3.96270        1.20520
H         -5.96650       -2.41630       -0.36430
H         -7.68700       -3.75540       -0.46720
H         -9.59540       -5.18980       -0.99670
H        -11.79440       -4.20550       -1.53580
H        -12.09000       -1.74300       -1.52190
H        -10.17970       -0.27990       -1.16210
H         -8.43500        0.95250       -0.88970
H         -5.96730        1.75270       -0.79480
