57

P          0.94500        0.04200       -0.07210
O         -0.38580        0.79220       -0.84830
C         -0.07430        2.18350       -0.92670
O          0.57850       -1.57200       -0.50280
C          0.64510       -1.75180       -1.89370
O          0.55420        0.67670        1.47610
C         -0.82770        0.43160        1.73470
Au         3.40500        0.04200       -0.07210
Br         3.40500       -1.71130        1.83410
C          3.40500        1.49750       -1.65450
C          3.55000        1.16990       -2.93600
P          5.86500        0.04200       -0.07210
C          6.96030       -0.27850        1.38530
C          6.72270       -1.40330        2.20600
C          7.42230       -1.57960        3.40050
C          8.35870       -0.63210        3.80610
Cl         9.18300       -0.82400        5.34210
C          8.60130        0.48520        2.99740
C          7.90130        0.66360        1.79850
C          6.11530       -1.67800       -0.61400
C          5.04260       -2.52810       -0.91370
C          5.27210       -3.84390       -1.32970
C          6.57770       -4.32060       -1.46340
Cl         6.86790       -5.98330       -1.96350
C          7.65360       -3.47440       -1.19580
C          7.42630       -2.16280       -0.77920
C          6.50510        1.57090       -0.90680
C          5.73850        2.74530       -0.88270
C          6.06530        3.86300       -1.65230
C          7.25480        3.88470       -2.36840
Cl         7.64630        5.28510       -3.35550
C          8.13060        2.79690       -2.27340
C          7.75540        1.63690       -1.55990
H         -0.49320        2.62620       -1.85230
H          1.00880        2.42840       -0.96780
H         -0.48120        2.73090       -0.05140
H         -0.05260       -2.57720       -2.15450
H          1.66910       -2.05900       -2.18410
H          0.29820       -0.87980       -2.48820
H         -1.05480        0.62530        2.79850
H         -1.13390       -0.61610        1.50830
H         -1.49510        1.13280        1.18370
H          3.17350        2.53370       -1.43830
H          3.72040        0.14580       -3.24000
H          3.47610        1.95060       -3.69020
H          6.00250       -2.15080        1.95300
H          7.20840       -2.43540        4.03080
H          9.31490        1.23380        3.33510
H          8.09440        1.57110        1.23680
H          4.03020       -2.17490       -0.82930
H          4.43060       -4.48880       -1.55180
H          8.66710       -3.84130       -1.28830
H          8.28650       -1.53530       -0.57460
H          4.85270        2.78840       -0.28350
H          5.38470        4.70660       -1.69230
H          9.08520        2.84820       -2.78150
H          8.43810        0.80060       -1.53240
