35

N         -1.45810       -0.07020       -0.04170
C         -0.93530        0.80050        0.87790
C          0.44950        0.96140        0.99810
C          1.29580        0.27160        0.13150
C          0.74980       -0.60170       -0.81160
C         -0.63790       -0.78130       -0.86400
Au        -3.47560       -0.20170       -0.28210
Br        -3.56530       -2.22430        1.33330
C         -3.40130        1.47720       -1.62300
C         -2.29850        2.13970       -1.97930
N         -5.57170       -0.23350       -0.49490
C         -6.20920       -1.46020       -0.59020
C         -5.47760       -2.72840       -0.90250
C         -7.60980       -1.56620       -0.58570
C         -8.39080       -0.43760       -0.50720
C         -7.78380        0.79920       -0.49070
C         -6.37710        0.91530       -0.51040
C         -5.90170        2.34670       -0.36070
H         -1.59420        1.34610        1.53960
H          0.86860        1.62860        1.74370
H          2.36860        0.41740        0.18470
H          1.40020       -1.12010       -1.50370
H         -1.06620       -1.43270       -1.61410
H         -4.29720        1.80390       -2.10130
H         -1.31900        1.90680       -1.59270
H         -2.38380        2.96040       -2.68760
H         -4.41000       -2.53760       -1.13130
H         -5.88970       -3.15720       -1.84360
H         -5.62110       -3.48010       -0.10030
H         -8.09370       -2.53170       -0.67290
H         -9.47160       -0.51480       -0.48530
H         -8.42160        1.67440       -0.43410
H         -6.65870        2.97280        0.16030
H         -5.88650        2.85370       -1.35050
H         -4.97240        2.43600        0.23360
