48

O         -0.32800       -1.08200        0.00300
C         -1.07740        0.00370        0.04880
C         -0.27440        1.12240        0.06220
C          1.01880        0.66530        0.03940
C          0.93730       -0.70920        0.03020
Au        -0.91570       -3.04590        0.01600
Br         1.23840       -3.78880        1.01340
C         -2.84170       -2.58930       -0.80560
C         -3.27730       -1.48670       -1.42530
P         -1.62100       -5.40260        0.03160
N         -1.98560       -6.00500       -1.60680
C         -0.68730       -5.86700       -2.31860
C         -2.41700       -7.40850       -1.73940
O         -3.20190       -5.13490        0.37550
C         -3.34140       -5.03760        1.71960
C         -3.66560       -3.79160        2.27870
C         -3.70540       -3.62190        3.66420
C         -3.45350       -4.69710        4.50780
C         -3.16340       -5.94940        3.97400
C         -3.08290       -6.14790        2.57840
C         -2.68240       -7.52010        2.11660
C         -3.34350       -8.61290        2.71950
C         -3.01940       -9.92820        2.39310
C         -1.99540      -10.19120        1.49220
C         -1.30910       -9.13820        0.89680
C         -1.65040       -7.80310        1.16290
O         -0.95800       -6.86970        0.46240
H         -2.14410        0.05570        0.15790
H         -0.59780        2.15360        0.11220
H          1.91940        1.26420        0.04680
H          1.79150       -1.36540        0.01080
H         -3.59950       -3.35030       -0.85450
H         -2.67810       -0.62280       -1.66680
H         -4.29480       -1.44800       -1.82190
H         -0.35360       -4.80500       -2.33410
H         -0.74020       -6.22190       -3.36680
H          0.12510       -6.45190       -1.81570
H         -3.30290       -7.61060       -1.11070
H         -1.59530       -8.12410       -1.51410
H         -2.67580       -7.61260       -2.79960
H         -3.84610       -2.93360        1.64830
H         -3.91760       -2.64810        4.08620
H         -3.46740       -4.56190        5.58290
H         -2.95070       -6.75960        4.66190
H         -4.13980       -8.44700        3.43500
H         -3.56120      -10.74670        2.84770
H         -1.73560      -11.21240        1.24590
H         -0.51690       -9.36180        0.19230
