50

N         -1.32960       -0.21820       -0.27520
C         -0.60220        0.84350       -0.66080
C          0.75780        0.87390       -0.65210
C          1.44620       -0.12910       -0.06120
O          2.78780       -0.09570       -0.15540
C          3.58920       -0.65450        0.78880
C          0.72530       -1.13820        0.59370
C         -0.66420       -1.19520        0.45530
Au        -3.38510       -0.33470       -0.38800
Br        -3.42540       -2.72980       -0.25190
C         -3.37600        1.91530       -0.49070
C         -4.11360        2.82590        0.19280
P         -5.78930       -0.13860       -0.58380
N         -6.77170        1.31100       -0.64540
C         -6.37400        2.25850       -1.70900
C         -8.19280        1.17760       -0.63330
N         -6.21680       -1.19510       -2.00040
C         -7.67470       -1.41690       -2.28660
C         -5.62360       -0.64960       -3.19870
N         -6.57060       -1.05120        0.87840
C         -6.14300       -2.44830        1.02950
C         -6.36350       -0.40660        2.21500
H         -0.99550        1.59110       -1.21470
H          1.26660        1.68800       -1.14130
H          4.64490       -0.60070        0.48200
H          3.31610       -1.70730        0.95930
H          3.42560       -0.05750        1.69930
H          1.23250       -1.88720        1.12970
H         -1.21220       -2.01700        0.90540
H         -2.75600        2.45230       -1.16740
H         -4.75220        2.47740        0.91320
H         -4.01420        3.91610        0.11180
H         -5.33240        2.55890       -1.77210
H         -6.90020        3.18930       -1.66020
H         -6.72260        1.98770       -2.68200
H         -8.53020        0.25980       -0.23680
H         -8.50970        1.01570       -1.60430
H         -8.66630        2.14570       -0.52870
H         -8.25230       -1.93040       -1.52110
H         -7.92520       -1.97520       -3.19830
H         -8.18660       -0.54750       -2.62220
H         -4.55390       -0.56340       -3.07340
H         -6.03740        0.30260       -3.38980
H         -5.91780       -1.19790       -4.10010
H         -6.24440       -3.01460        0.08160
H         -6.56310       -2.96490        1.90970
H         -5.14380       -2.46960        1.44260
H         -6.82280        0.55910        2.27730
H         -5.30490       -0.37370        2.48730
H         -6.80040       -0.96220        3.05430
