36

N         -1.45320       -0.10520       -0.01590
C         -0.95010        0.79370        0.86560
C          0.42440        0.97970        1.00160
C          1.31610        0.26620        0.18720
O          2.65950        0.49890        0.22490
C          3.26040        1.49120        0.98550
C          0.78920       -0.68830       -0.69820
C         -0.60680       -0.87630       -0.77550
Au        -3.47560       -0.20170       -0.28210
Br        -3.58960       -2.07920        1.49850
C         -3.38110        1.35680       -1.76010
C         -2.28490        2.02660       -2.12510
N         -5.50320       -0.36040       -0.55460
C         -6.15790       -1.56360       -0.53940
N         -7.49550       -1.62260       -0.80490
C         -8.23260       -0.49200       -0.99590
O         -9.55880       -0.54690       -1.27810
C        -10.23960       -1.71010       -1.57570
C         -7.60450        0.74580       -0.91190
C         -6.22270        0.78110       -0.73970
H         -1.61790        1.36490        1.49010
H          0.78220        1.70050        1.72330
H          4.35600        1.50930        0.81250
H          3.07780        1.30300        2.06410
H          2.85190        2.49100        0.71110
H          1.45070       -1.25810       -1.34230
H         -1.00870       -1.58150       -1.49190
H         -4.27940        1.57340       -2.32550
H         -1.30980        1.83440       -1.70300
H         -2.35790        2.75530       -2.93040
H         -5.61110       -2.49020       -0.42850
H        -11.30810       -1.47770       -1.77150
H        -10.17660       -2.41830       -0.72530
H         -9.81620       -2.18080       -2.49080
H         -8.16910        1.66830       -0.99270
H         -5.73820        1.74080       -0.65650
