72

P          1.03770       -0.07810        0.04980
O         -0.19800        0.16940        1.23360
C          0.20180       -0.61600        2.36250
C         -0.73200       -0.53460        3.56140
O          0.60000        1.10870       -1.11020
C          0.41920        2.38490       -0.55030
C         -0.33540        3.24140       -1.57020
O          0.59350       -1.72030       -0.24390
C         -0.81080       -1.75780       -0.53450
C         -1.33670       -3.17930       -0.61000
Au         3.49770       -0.07810        0.04980
Br         3.49770       -0.42960       -2.51630
C          3.49770        0.21360        2.17990
C          3.65370       -0.74350        3.09280
C          5.64770       -0.07810        0.04980
N          6.45150       -1.18070       -0.07640
C          5.93030       -2.55890       -0.13730
C          7.01590       -3.64160       -0.02690
C          6.49470       -5.07900        0.00080
C          7.67220       -6.05570        0.10980
C          7.72750       -0.67960        0.00800
C          7.65730        0.67250        0.18860
C          8.80090        1.48550        0.26280
C         10.05340        0.87830        0.15640
C         10.15280       -0.51120        0.02260
C          8.99710       -1.30940       -0.04930
N          6.37090        1.06150        0.25300
C          5.87170        2.42250        0.43780
C          6.34050        3.36180       -0.67040
C          6.91570        2.87150       -1.86790
C          7.43440        3.75050       -2.81980
C          7.38010        5.12660       -2.60620
C          6.78100        5.62980       -1.44860
C          6.25850        4.75170       -0.48750
H          1.16160       -0.26650        2.75860
H          0.26740       -1.70140        2.11390
H         -0.77590        0.50030        3.95580
H         -0.32030       -1.18650        4.37010
H         -1.74370       -0.90660        3.30810
H          1.40840        2.84700       -0.35590
H         -0.20310        2.37670        0.36940
H          0.21360        3.26950       -2.53610
H         -0.44990        4.28070       -1.19680
H         -1.34950        2.82270       -1.75800
H         -1.04260       -1.22130       -1.47950
H         -1.44620       -1.34590        0.27680
H         -0.87670       -3.72050       -1.45640
H         -2.44200       -3.14520       -0.75650
H         -1.13910       -3.71010        0.34660
H          3.35900        1.23650        2.51530
H          3.78650       -1.78030        2.81680
H          3.63120       -0.46500        4.14500
H          5.33630       -2.69900       -1.06220
H          5.25410       -2.70190        0.73600
H          7.57800       -3.47770        0.92010
H          7.66470       -3.56260       -0.92300
H          5.93600       -5.28610       -0.93520
H          5.81940       -5.23070        0.87150
H          8.37520       -5.91470       -0.74010
H          7.30580       -7.10280        0.09230
H          8.23010       -5.89300        1.05820
H          8.72920        2.56070        0.37440
H         10.95050        1.48090        0.19110
H         11.12790       -0.97620       -0.04080
H          9.17260       -2.35720       -0.15650
H          6.29390        2.79180        1.39800
H          4.76010        2.46040        0.51760
H          6.98290        1.81530       -2.06930
H          7.89010        3.35500       -3.71790
H          7.80340        5.80050       -3.34000
H          6.73850        6.69970       -1.29040
H          5.81780        5.16430        0.41300
