34

P          0.94730        0.06720        0.05210
O         -0.26480       -0.49950       -1.01860
C          0.21140       -0.11640       -2.31000
C         -0.64480       -0.64460       -3.44300
O          0.52050       -0.83150        1.44000
C          0.60420       -2.21600        1.20420
C          0.06910       -2.91380        2.43890
O          0.52210        1.72810       -0.11200
C         -0.86890        1.87660        0.19110
C         -1.37630        3.23980       -0.23360
Au         3.40730        0.06720        0.05210
Br         3.45180        1.20180       -2.15090
C          3.51230       -0.78220        1.93700
C          3.11520       -0.10290        3.01010
C          5.55730        0.06720        0.05210
O          6.77540        0.06720        0.05210
H          1.23590       -0.51290       -2.50240
H          0.20180        0.99270       -2.41480
H         -0.60220       -1.75030       -3.47750
H         -0.23740       -0.25050       -4.40530
H         -1.69260       -0.29500       -3.33950
H          1.66090       -2.52400        1.04770
H         -0.01530       -2.53300        0.33220
H          0.64550       -2.62560        3.33880
H          0.13300       -4.02010        2.30410
H         -1.00460       -2.64900        2.59380
H         -1.06040        1.71750        1.27350
H         -1.52560        1.19330       -0.39040
H         -0.87340        4.03830        0.34430
H         -2.47380        3.29450       -0.05140
H         -1.20310        3.38950       -1.32190
H          3.94410       -1.77110        2.05160
H          2.70480        0.89460        2.90020
H          3.20120       -0.54370        3.99820
