33

N         -0.65900       -1.22800       -0.05100
C         -1.18000       -0.10300       -0.62230
O         -2.27270       -0.22450       -1.42090
C         -2.68670        0.72580       -2.33750
C         -0.48260        1.11900       -0.49140
C          0.70910        1.15990        0.23360
C          1.22680       -0.01060        0.77890
C          0.54340       -1.20920        0.58690
Au        -1.57560       -3.10440       -0.27260
Br         0.09110       -3.69510       -2.16500
C         -2.95920       -2.61400        1.29840
C         -2.80080       -1.53750        2.07450
N         -2.49230       -4.98070       -0.49410
C         -1.76720       -6.07140       -0.94200
F         -0.43390       -6.03650       -1.11690
C         -2.33620       -7.34130       -1.06910
C         -3.67440       -7.53090       -0.78730
F         -4.24060       -8.75480       -0.92610
C         -4.42970       -6.45100       -0.37530
C         -3.83280       -5.19660       -0.21930
F         -4.70210       -4.19240        0.00530
H         -3.49770        0.30560       -2.96680
H         -1.84850        1.00160       -3.01860
H         -3.05640        1.63110       -1.81470
H         -0.83450        2.02860       -0.95970
H          1.24490        2.09290        0.35050
H          2.15230        0.00690        1.33990
H          0.93380       -2.12490        1.01070
H         -3.81590       -3.18160        1.58510
H         -1.98720       -0.84050        1.95360
H         -3.52140       -1.33130        2.86160
H         -1.72590       -8.18380       -1.37210
H         -5.49100       -6.57460       -0.19860
