84

P          0.95780        0.08700        0.02560
O         -0.27120        1.03790       -0.72180
C          0.10940        2.39570       -0.46670
C         -0.62010        3.42060       -1.31670
O          0.53300       -1.46320       -0.55320
C          0.55400       -1.51740       -1.95380
C         -0.13660       -2.81520       -2.36500
O          0.53200        0.55850        1.62650
C         -0.87280        0.32770        1.81230
C         -1.36420        0.99000        3.09510
Au         3.41780        0.08700        0.02560
Br         3.41780       -1.90370        1.68260
C          3.41780        1.73940       -1.34990
C          3.59480        3.01430       -0.99370
P          5.87780        0.08700        0.02560
C          6.32550       -1.31800       -1.19760
C          7.74740       -1.70800       -1.70400
C          8.52300       -2.60880       -0.76820
C          7.72560       -3.89190       -0.51710
C          6.30000       -3.59410       -0.02690
C          5.57260       -2.64630       -0.99470
C          6.44760        1.63630       -1.02030
C          7.87810        2.28080       -0.90130
C          8.97600        1.69670       -1.80270
C          8.52710        1.72830       -3.28300
C          7.13840        1.12580       -3.51530
C          6.10560        1.72220       -2.55380
C          6.23010       -0.46030        1.82600
C          7.67480       -0.57690        2.41880
C          8.41900        0.75150        2.57500
C          7.59780        1.76050        3.39490
C          6.17570        1.89620        2.85000
C          5.49060        0.51830        2.77550
H          1.16280        2.57250       -0.69630
H         -0.06610        2.67230        0.59520
H         -0.41230        3.25950       -2.39230
H         -0.22820        4.43300       -1.04290
H         -1.70370        3.40170       -1.10680
H          1.60400       -1.52520       -2.31950
H         -0.02200       -0.68690       -2.42050
H          0.38150       -3.68390       -1.90670
H         -0.12600       -2.92690       -3.46850
H         -1.19240       -2.81200       -2.01590
H         -1.08210       -0.76750        1.86040
H         -1.51830        0.78220        1.05750
H         -0.88950        0.53730        3.98740
H         -2.46780        0.85540        3.16490
H         -1.15330        2.08190        3.06340
H          3.13530        1.52210       -2.37520
H          3.80860        3.28070        0.03450
H          3.52100        3.79460       -1.74610
H          5.81520       -0.92320       -2.09210
H          8.35220       -0.87810       -2.00600
H          7.62910       -2.28740       -2.65120
H          8.73860       -2.06130        0.13830
H          9.50680       -2.86550       -1.21790
H          8.25760       -4.52450        0.22050
H          7.66220       -4.45120       -1.47590
H          6.35170       -3.16300        0.97660
H          5.73440       -4.54700        0.04270
H          4.51700       -2.46120       -0.72600
H          5.52930       -3.17800       -1.97770
H          5.87560        2.39960       -0.48000
H          8.21680        2.40560        0.12670
H          7.78380        3.33500       -1.24740
H          9.28630        0.72580       -1.41260
H          9.90270        2.30300       -1.72670
H          9.26650        1.22100       -3.94140
H          8.47290        2.79460       -3.59370
H          7.15340        0.03930       -3.46080
H          6.81790        1.34680       -4.55870
H          5.16760        1.25820       -2.84350
H          6.04700        2.80790       -2.80570
H          5.82290       -1.44560        1.98010
H          8.30520       -1.28920        1.90400
H          7.58330       -0.99560        3.44730
H          8.64850        1.12090        1.58260
H          9.39830        0.59350        3.07870
H          8.10380        2.74770        3.41150
H          7.53910        1.38940        4.44450
H          6.19040        2.36330        1.84720
H          5.59780        2.56340        3.53020
H          4.43380        0.64060        2.48110
H          5.48370        0.09360        3.81390
