30

O         -0.32800       -1.08200        0.00300
C         -1.14850       -0.07090       -0.21530
C         -0.44650        1.11360       -0.20900
C          0.87060        0.77410       -0.03770
C          0.89930       -0.59660        0.08210
Au        -0.91570       -3.04590        0.01600
Br        -3.03650       -2.42020       -1.33270
C          0.84470       -3.56530        1.13560
C          1.60210       -2.77930        1.91160
N         -1.51780       -5.05770        0.02930
C         -1.02560       -6.00020        0.90900
N         -1.42690       -7.30060        0.85890
C         -2.36190       -7.72650       -0.02710
O         -2.74630       -9.02270       -0.09560
C         -2.08180      -10.06470        0.51170
C         -2.92520       -6.81040       -0.88800
C         -2.47550       -5.49510       -0.85800
H         -2.21690       -0.13010       -0.32670
H         -0.84910        2.10990       -0.33340
H          1.71880        1.44440       -0.02820
H          1.81770       -1.15450        0.13480
H          1.17090       -4.58770        1.17190
H          1.37600       -1.74740        2.12360
H          2.45130       -3.19750        2.44200
H         -0.33440       -5.76810        1.68500
H         -2.62180      -11.00840        0.29880
H         -2.03310       -9.91220        1.60990
H         -1.05540      -10.14620        0.09210
H         -3.68700       -7.11550       -1.59520
H         -2.93240       -4.87000       -1.58430
