29

N         -0.32800       -1.08200        0.00300
C         -0.96970       -0.00480       -0.49240
O         -0.25870        1.08980       -0.34720
C          0.86650        0.74860        0.23780
C          0.82100       -0.60330        0.50590
Au        -0.93010       -3.09380        0.01630
Br         0.10390       -3.38760        2.37280
C         -1.78830       -2.84990       -1.93980
C         -1.49270       -1.85820       -2.79050
N         -1.53210       -5.10560        0.02970
C         -1.01710       -6.00400        0.93370
N         -1.38800       -7.32300        0.92340
C         -2.32090       -7.79810        0.05270
O         -2.69260       -9.09460        0.03810
C         -2.05020      -10.09800        0.73670
C         -2.90710       -6.91240       -0.81730
C         -2.49170       -5.60080       -0.82640
H         -1.97370       -0.02550       -0.89730
H          1.68610        1.42500        0.43910
H          1.61050       -1.20400        0.93680
H         -2.49680       -3.47740       -2.41520
H         -0.77310       -1.08580       -2.60080
H         -1.99140       -1.80760       -3.75590
H         -0.24720       -5.74960        1.62360
H         -2.56710      -11.05500        0.54270
H         -2.07710       -9.88000        1.82490
H         -0.99710      -10.17840        0.39120
H         -3.68290       -7.25920       -1.50290
H         -3.05930       -5.03250       -1.49590
