61

N          0.95430       -0.03280       -0.08270
C          0.90860        1.41140        0.20660
C          0.28080       -0.71410        1.02620
C          0.20080       -0.25260       -1.32080
C          0.47680       -1.36150       -2.14270
C         -0.24120       -1.57360       -3.32170
C         -1.28750       -0.72000       -3.69550
C         -1.62550        0.35060       -2.87530
C         -0.89740        0.58330       -1.70380
Au         3.05430       -0.03280       -0.08270
Br         3.02580       -1.17670        2.14680
C          3.05240        0.70320       -2.07530
C          2.95140       -0.10810       -3.14060
P          5.51430       -0.03280       -0.08270
O          6.92870       -0.24600        0.88760
C          6.45380       -0.65760        2.20140
C          6.51100       -2.19960        2.39340
C          7.20610       -0.01160        3.36790
O          5.55670       -1.73560       -0.25160
C          5.31050       -2.25910       -1.54900
C          5.98010       -1.56770       -2.74800
C          5.82160       -3.70590       -1.52470
O          6.17720        1.00200       -1.26600
C          5.75500        2.34160       -1.04660
C          6.29050        2.96810        0.24810
C          6.20900        3.16560       -2.25380
H         -0.08150        1.79740        0.51830
H          1.60030        1.63970        1.04520
H          1.29070        2.00330       -0.65680
H         -0.82650       -0.60070        0.95160
H          0.52650       -0.25850        2.01440
H          0.51190       -1.79700        1.02840
H          1.25960       -2.04680       -1.85930
H         -0.00320       -2.41440       -3.96540
H         -1.84350       -0.87730       -4.60630
H         -2.44360        1.01070       -3.13530
H         -1.25460        1.42160       -1.12770
H          3.24300        1.73290       -2.31100
H          2.85250       -1.17970       -3.04930
H          3.01810        0.29070       -4.14890
H          5.43710       -0.30780        2.40890
H          7.55020       -2.57020        2.28220
H          5.85990       -2.77190        1.70960
H          6.12910       -2.47760        3.39910
H          8.28200       -0.27070        3.35840
H          6.76890       -0.38830        4.32710
H          7.05940        1.08550        3.36800
H          4.20640       -2.30230       -1.68740
H          7.08590       -1.55320       -2.64410
H          5.61170       -0.54540       -2.91710
H          5.72850       -2.12240       -3.67960
H          6.93070       -3.71890       -1.41350
H          5.55220       -4.23960       -2.45790
H          5.38800       -4.26160       -0.66340
H          4.65920        2.41910       -0.98770
H          7.39660        2.93390        0.28020
H          5.87260        2.44800        1.13550
H          5.94980        4.02590        0.31210
H          7.31820        3.15870       -2.32760
H          5.85950        4.21710       -2.17060
H          5.79140        2.73350       -3.18890
