33

C          0.90100       -0.64300       -0.00200
N          0.81380        0.68800        0.15650
C         -0.50000        0.96290        0.10860
C         -1.17910       -0.21400       -0.07190
O         -0.29400       -1.18070       -0.13390
Au         2.65840       -1.88140       -0.01350
Br         1.20510       -3.93820       -0.61840
C          3.86490       -0.17410        0.48860
C          3.64490        1.14730        0.41840
N          4.37500       -3.09110       -0.02470
C          5.72980       -2.67450       -0.14880
N          6.23110       -1.34430       -0.45970
C          7.42430       -0.82670        0.19890
C          5.72190       -0.54420       -1.57520
C          6.77610       -3.63880       -0.15880
C          6.51140       -4.97890       -0.06080
C          5.21300       -5.39360        0.05960
C          4.18610       -4.45700        0.07150
H         -0.92570        1.94990        0.20890
H         -2.25090       -0.34300       -0.15070
H          4.80340       -0.40460        0.94030
H          2.80450        1.62970       -0.02660
H          4.41340        1.82710        0.77310
H          7.81060       -1.50990        0.98970
H          7.18090        0.13360        0.72010
H          8.22800       -0.63230       -0.53440
H          4.79470       -0.96950       -1.99550
H          6.49530       -0.47140       -2.35430
H          5.55720        0.50560       -1.24380
H          7.80740       -3.35390       -0.29780
H          7.32440       -5.70190       -0.09380
H          4.99350       -6.44990        0.14170
H          3.24370       -4.91300        0.22240
