61

P          1.07120        0.06810        0.01690
C         -0.02220        0.58150       -1.41090
C          0.17620        2.04400       -1.83940
C         -0.33210        2.05420       -3.28350
C          0.36970        0.84950       -3.84360
C          0.24090       -0.19960       -2.73840
C          0.48490       -1.73160        0.11160
C          0.80200       -2.75780       -0.99390
C          0.22690       -4.02940       -0.37260
C          0.68570       -3.98450        1.07600
C          0.98810       -2.50240        1.32430
C          0.33110        1.21950        1.29740
C         -1.17640        0.96280        1.50810
C         -1.47060        1.67280        2.82130
C         -0.33800        1.15990        3.67640
C          0.87810        1.13520        2.74120
Au         3.53120        0.06810        0.01690
Br         3.53120       -0.89500        2.42110
C          3.53120        0.86760       -1.97900
C          3.68360        0.03950       -3.00840
N          5.63120        0.06810        0.01690
C          6.28920        1.25450        0.10950
C          7.68640        1.28600        0.09040
Cl         8.54430        2.79690        0.33660
C          8.39240        0.09580       -0.12220
C          7.69450       -1.10230       -0.27070
C          6.30320       -1.10140       -0.15540
H         -1.10260        0.45030       -1.19380
H          1.26060        2.28390       -1.87610
H         -0.31540        2.78470       -1.18450
H         -0.10360        2.98710       -3.84590
H         -1.43210        1.89580       -3.28050
H          1.44190        1.14040       -3.93960
H          0.05110        0.48840       -4.84340
H          1.17590       -0.79360       -2.75140
H         -0.64120       -0.82390       -2.94010
H         -0.62390       -1.67990        0.18160
H          1.90180       -2.85400       -1.13520
H          0.30790       -2.60920       -1.96580
H          0.44500       -4.98420       -0.89510
H         -0.88180       -3.90390       -0.36590
H          1.63450       -4.55650        1.20750
H         -0.08770       -4.42220        1.74170
H          2.07350       -2.47020        1.20260
H          0.69200       -2.11950        2.32490
H          0.44300        2.28330        0.98910
H         -1.35210       -0.12650        1.67250
H         -1.83650        1.30550        0.68800
H         -2.46880        1.43040        3.24680
H         -1.37670        2.76880        2.68290
H         -0.59950        0.09900        3.91190
H         -0.17680        1.67060        4.65100
H          1.35710        0.19270        2.99120
H          1.56340        1.99500        2.91200
H          3.46390        1.93730       -2.14060
H          3.76890       -1.02710       -2.83330
H          3.72010        0.42260       -4.02280
H          5.72540        2.16530        0.26690
H          9.47030        0.10620       -0.17600
H          8.22620       -2.02170       -0.46870
H          5.74420       -2.02230       -0.29300
