49

N          1.02400       -0.65300       -0.05500
C          0.30990       -0.17380        0.93190
C          0.46230       -0.19960        2.44680
C          1.65130       -0.40540        3.21520
C          1.60630       -0.32750        4.61740
C          0.42950       -0.07500        5.30370
C         -0.74610        0.09470        4.58260
C         -0.73030        0.03780        3.19220
N         -0.79720        0.54750        0.43460
C         -0.77220        0.56780       -1.00370
C          0.31030       -0.44660       -1.30100
Au         2.73940       -1.84140       -0.28990
Br         1.33680       -3.96280        0.20090
C          3.90360       -0.08050       -0.69730
C          4.03380        0.86040        0.23290
N          4.45470       -3.02990       -0.52480
C          5.20650       -3.25780       -1.56060
C          5.00210       -2.80540       -2.98790
C          3.97870       -1.92020       -3.37990
C          3.88610       -1.48120       -4.71560
C          4.77280       -1.95050       -5.68090
C          5.75230       -2.87210       -5.32900
C          5.86610       -3.29370       -4.00480
N          6.29290       -4.09780       -1.21700
C          6.36560       -4.17420        0.20540
C          4.97550       -3.71240        0.63770
H          2.58030       -0.60600        2.69060
H          2.52370       -0.47160        5.18610
H          0.39190       -0.00700        6.38090
H         -1.65740        0.28810        5.09550
H         -1.67990        0.18710        2.72470
H         -1.41720        1.18960        0.94800
H         -0.46870        1.58640       -1.30800
H         -1.75920        0.29140       -1.43350
H          0.95000       -0.12050       -2.14470
H         -0.15960       -1.42800       -1.54590
H          4.40960        0.06120       -1.64430
H          3.55340        0.74770        1.19310
H          4.62900        1.74640        0.03850
H          3.26180       -1.55040       -2.67580
H          3.11890       -0.77250       -5.00120
H          4.70660       -1.60990       -6.70860
H          6.43320       -3.25810       -6.07880
H          6.64920       -4.00690       -3.81280
H          7.07130       -4.38260       -1.82120
H          7.15020       -3.43180        0.49610
H          6.63100       -5.17790        0.59320
H          5.09860       -3.00270        1.49000
H          4.30240       -4.54340        0.91230
