29

O         -0.32800       -1.08200        0.00300
C         -0.04990       -0.32300        1.04550
N          0.24980        0.93990        0.68630
C          0.13870        0.93970       -0.65180
C         -0.24930       -0.31310       -1.06280
Au        -0.91570       -3.04590        0.01600
Br        -2.28990       -2.46360       -2.01260
C          0.37780       -3.35650        1.72670
C          1.39610       -2.59120        2.16230
N         -1.51780       -5.05770        0.02930
C         -1.04240       -6.02830        0.88680
N         -1.43470       -7.32420        0.78630
C         -2.37210       -7.72210       -0.10020
O         -2.74340       -9.01960       -0.19750
C         -2.00930      -10.05850        0.33590
C         -2.93620       -6.78130       -0.93550
C         -2.46210       -5.47160       -0.88300
H         -0.13430       -0.62580        2.07870
H          0.32400        1.79740       -1.28400
H         -0.40340       -0.60870       -2.08820
H          0.33240       -4.22670        2.32830
H          1.75410       -1.69270        1.69020
H          1.97840       -2.90970        3.02310
H         -0.26290       -5.88390        1.57640
H         -2.53490      -11.01550        0.14170
H         -1.87570       -9.92960        1.43030
H         -1.01390      -10.09880       -0.15840
H         -3.71570       -7.05920       -1.63400
H         -2.94820       -4.80840       -1.55410
