80

P          0.95400        0.06430        0.06120
C          0.12470        0.50350        1.78600
C          0.32150        1.90830        2.43420
C         -0.84940        2.89890        2.24540
C         -2.23030        2.27580        2.47880
C         -2.43530        0.86260        1.86770
C         -1.27550       -0.01540        2.27010
C          0.59990        1.06080       -1.54110
C         -0.88420        1.19560       -1.98930
C         -1.62700        2.33120       -1.28440
C         -0.90970        3.67120       -1.38360
C          0.57540        3.54060       -0.94380
C          1.27880        2.44380       -1.72130
C          0.17310       -1.68350        0.03770
C          0.27410       -2.59250       -1.21960
C          1.48980       -3.53780       -1.26160
C          1.62300       -4.33400        0.04380
C          1.67920       -3.38030        1.23410
C          0.37620       -2.59350        1.29390
Au         3.41400        0.06430        0.06120
Br         3.41400       -0.43870       -2.47950
C          3.41400        0.48190        2.17020
C          3.84350       -0.46200        3.00290
P          5.87400        0.06430        0.06120
N          6.89340        1.01140       -1.04870
C          8.33190        0.91610       -0.84030
C          8.61640       -0.18250        0.17140
C         10.14850       -0.32620        0.29450
C          8.03080        0.26460        1.55550
N          6.58430        0.58270        1.56510
N          6.47960       -1.34360       -0.78680
C          7.93140       -1.49590       -0.38800
H          0.82230       -0.09950        2.39820
H          1.28750        2.37730        2.18270
H          0.35050        1.73260        3.53920
H         -0.87300        3.34390        1.27060
H         -0.70080        3.76790        2.93100
H         -3.01290        2.98140        2.09880
H         -2.36280        2.17850        3.57360
H         -2.54610        0.74600        0.78530
H         -3.38450        0.46850        2.26830
H         -1.53340       -1.05410        2.01480
H         -1.26830       -0.00770        3.38850
H          1.01630        0.41340       -2.32010
H         -1.41830        0.22640       -1.88950
H         -0.89650        1.45780       -3.07360
H         -1.64870        2.12530       -0.24330
H         -2.67350        2.41330       -1.66330
H         -1.44920        4.41110       -0.74520
H         -0.96450        4.03360       -2.43090
H          0.72980        3.26240        0.09900
H          1.05780        4.52860       -1.07960
H          2.34930        2.39770       -1.44410
H          1.21270        2.74150       -2.79310
H         -0.89130       -1.39140        0.01340
H          0.16750       -2.01600       -2.16710
H         -0.61210       -3.27950       -1.18830
H          2.41430       -2.95690       -1.42390
H          1.36960       -4.26220       -2.09880
H          2.53380       -4.96490        0.01960
H          0.74770       -5.01860        0.17240
H          2.54010       -2.68340        1.15560
H          1.77530       -3.97350        2.16960
H          0.33320       -2.09200        2.26010
H         -0.45850       -3.33320        1.31730
H          3.17430        1.45910        2.55910
H          4.14330       -1.42690        2.60900
H          3.91620       -0.26960        4.06760
H          6.59440        2.01340       -1.01280
H          8.73540        1.89110       -0.48190
H          8.80070        0.69720       -1.82210
H         10.59130        0.63850        0.61990
H         10.60470       -0.59150       -0.68220
H         10.41160       -1.10000        1.04340
H          8.58050        1.16340        1.91210
H          8.21980       -0.53610        2.29790
H          6.43290        1.61510        1.63610
H          6.37040       -1.21600       -1.81030
H          8.48280       -1.86470       -1.27690
H          8.01000       -2.28770        0.39300
