82

P          1.02140        0.06150        0.07590
C          0.01470       -1.53680       -0.41760
C         -1.52890       -1.55300       -0.31120
C         -2.19630       -0.88700       -1.51680
C         -1.73030       -1.51910       -2.85610
C         -0.19550       -1.74770       -2.99040
C          0.36010       -2.33850       -1.72830
C          0.51610       -0.03470        1.95390
C          0.84120       -1.30290        2.82900
C          2.28570       -1.35410        3.35400
C          2.58890       -0.12370        4.22600
C          2.29590        1.09530        3.40560
C          0.87130        1.19220        2.82750
C          0.33000        1.53890       -1.08280
C          0.83530        3.01650       -0.95640
C          2.09710        3.36030       -1.81090
C          2.09280        2.83610       -3.25960
C          1.57050        1.40110       -3.31500
C          0.19500        1.41920       -2.63660
Au         3.48140        0.06150        0.07590
Br         3.48140        2.45810        1.05790
C          3.48140       -1.92800       -0.73920
C          3.31300       -3.01840        0.01370
C          5.63140        0.06150        0.07590
N          6.34570        1.14280       -0.10720
C          5.87660        2.35510       -0.73840
C          6.69130        2.73050       -2.00240
C          7.76570        0.84090       -0.07560
C          7.82140       -0.48470        0.57450
N          6.52590       -1.04790        0.21980
C          6.22550       -2.43750        0.50430
C          7.46770       -3.31060        0.77940
H          0.37450       -2.25930        0.32360
H         -1.90140       -1.15090        0.64620
H         -1.85420       -2.62170       -0.32810
H         -2.01000        0.18690       -1.48300
H         -3.29970       -0.99820       -1.43620
H         -2.12070       -0.91790       -3.70690
H         -2.19300       -2.52390       -2.91810
H          0.48230       -0.92140       -3.16850
H          0.00010       -2.36580       -3.88780
H          1.42750       -2.51900       -1.87480
H         -0.09180       -3.35480       -1.65540
H         -0.58680        0.00210        1.88270
H          0.58640       -2.25610        2.34860
H          0.20220       -1.26030        3.74120
H          2.97830       -1.36270        2.48970
H          2.47320       -2.26260        3.95830
H          3.67920       -0.11590        4.47570
H          2.01300       -0.10110        5.17100
H          2.96340        0.83900        2.61600
H          2.57460        2.03500        3.93150
H          0.69380        2.12080        2.24920
H          0.18200        1.23400        3.71080
H         -0.70780        1.61560       -0.71360
H          0.91370        3.34830        0.09400
H          0.03120        3.66330       -1.39180
H          2.94670        2.89220       -1.36250
H          2.26530        4.46100       -1.82980
H          3.11450        2.90770       -3.70190
H          1.42510        3.46370       -3.89050
H          2.25010        0.68090       -2.80430
H          1.49370        1.10930       -4.38670
H         -0.53080        0.70210       -2.96400
H         -0.36900        2.28030       -3.07260
H          3.63890       -2.03620       -1.80770
H          3.18540       -2.95100        1.08050
H          3.34110       -4.00330       -0.43870
H          5.92520        3.21350       -0.03720
H          4.87070        2.18530       -1.14060
H          7.74340        2.95700       -1.74250
H          6.26420        3.63860       -2.48700
H          6.67010        1.90350       -2.74440
H          8.37110        1.61780        0.44330
H          8.11600        0.71380       -1.12740
H          7.82450       -0.34240        1.68260
H          8.71370       -1.05270        0.25950
H          5.78090       -2.89430       -0.39580
H          5.56330       -2.50470        1.39940
H          8.14390       -3.29610       -0.10200
H          7.15800       -4.36150        0.95210
H          8.02640       -2.96520        1.67650
