62

P          0.94480       -0.00210       -0.08340
C          0.06370       -0.87180        1.26250
C         -0.23710       -2.24590        1.12710
C         -0.70340       -2.99250        2.20920
C         -0.85580       -2.39300        3.45680
C         -0.53980       -1.04320        3.62310
C         -0.07300       -0.28760        2.53920
C          0.51810        1.72170        0.23690
C          1.49880        2.71550        0.34090
C          1.12780        4.03480        0.63010
C         -0.21820        4.36350        0.83000
C         -1.19790        3.37560        0.73410
C         -0.83150        2.06350        0.43300
C          0.29290       -0.92260       -1.49530
C         -1.10350       -0.96020       -1.68810
C         -1.66660       -1.78360       -2.66290
C         -0.84520       -2.58110       -3.44790
C          0.54290       -2.54840       -3.27450
C          1.11630       -1.71470       -2.30220
Au         3.40480       -0.00210       -0.08340
Br         3.40480        1.27190       -2.33840
C          3.40480       -1.05960        1.78860
C          4.39030       -1.62870        2.48990
C          5.55480       -0.00210       -0.08340
N          6.39550       -0.35490       -1.08230
C          6.05480       -0.98850       -2.34860
C          7.65310       -0.17500       -0.59330
C          8.93850       -0.51700       -1.27410
C          7.54940        0.38860        0.66850
C          8.68090        0.86720        1.54230
N          6.24420        0.48510        0.98410
C          5.69420        1.22010        2.13960
H         -0.07600       -2.77360        0.19890
H         -0.91410       -4.04730        2.08400
H         -1.19260       -2.98380        4.29920
H         -0.62610       -0.59240        4.60320
H          0.22020        0.73750        2.71810
H          2.54250        2.47330        0.20610
H          1.88330        4.80500        0.70860
H         -0.50390        5.38120        1.06480
H         -2.23930        3.62190        0.90070
H         -1.60990        1.31390        0.38450
H         -1.76250       -0.38440       -1.06170
H         -2.74590       -1.81970       -2.77910
H         -1.28940       -3.24840       -4.18220
H          1.17030       -3.19040       -3.87720
H          2.18770       -1.73150       -2.14660
H          2.42610       -1.19550        2.21480
H          5.42760       -1.61170        2.19430
H          4.13130       -2.12850        3.42290
H          4.96000       -1.11610       -2.44310
H          6.50550       -2.00630       -2.36810
H          6.45580       -0.39900       -3.19640
H          8.77020       -0.99480       -2.25520
H          9.49830       -1.23310       -0.63040
H          9.55670        0.39570       -1.40940
H          9.66610        0.68680        1.07260
H          8.65010        0.35040        2.52400
H          8.57990        1.96150        1.70560
H          6.49500        1.65260        2.76820
H          5.07180        0.63530        2.81830
H          5.08360        2.07160        1.76190
