90

P          1.06950        0.07120        0.00980
C          0.17600        0.87550        1.38040
C         -0.14500        0.14380        2.54350
C         -0.63260        0.78540        3.68350
C         -0.79040        2.16990        3.69300
C         -0.45870        2.91570        2.56080
C          0.03190        2.27750        1.41590
C          0.53600        1.09620       -1.38410
C          1.47600        1.69030       -2.21890
C          1.07930        2.52740       -3.26630
C         -0.27570        2.77770       -3.48360
C         -1.23260        2.18920       -2.65820
C         -0.82980        1.35470       -1.60880
C          0.48400       -1.63650        0.18900
C         -0.90140       -1.89100        0.12970
C         -1.40420       -3.16640        0.38030
C         -0.53350       -4.20610        0.69600
C          0.84120       -3.96930        0.77060
C          1.34300       -2.69010        0.51610
Au         3.52950        0.07120        0.00980
Br         3.52950       -1.36740       -2.14390
C          3.52950        1.26540        1.79770
C          4.15230        1.16240        2.97460
P          5.98950        0.07120        0.00980
C          6.80340        0.53330       -1.80110
C          6.62900       -0.25760       -3.15800
C          5.42760        0.15870       -4.05900
C          4.82120        1.56240       -4.03380
C          5.08890        2.24600       -2.67690
C          6.54940        2.00200       -2.29890
C          6.77110        1.24530        1.34030
C          8.31090        1.28590        1.44340
C          8.94720        2.25960        0.43180
C          8.48250        3.69460        0.72500
C          6.95180        3.84450        0.76670
C          6.29860        2.73630        1.58920
C          6.47600       -1.71610       -0.06740
C          7.82700       -2.23270       -0.17090
C          9.11070       -1.49260       -0.33210
C          8.02620       -3.62170       -0.00470
C          6.97060       -4.49000        0.23220
C          5.67480       -3.99320        0.31680
C          5.44860       -2.62880        0.16800
H          0.01780       -0.92200        2.60460
H         -0.85740        0.20860        4.57170
H         -1.14520        2.66580        4.58750
H         -0.55200        3.99360        2.58280
H          0.33260        2.88920        0.57640
H          2.49890        1.48880       -2.04860
H          1.82460        2.98560       -3.90570
H         -0.58060        3.42740       -4.29420
H         -2.28460        2.38830       -2.82600
H         -1.59210        0.93080       -0.97550
H         -1.60170       -1.09590       -0.08060
H         -2.47280       -3.34330        0.34790
H         -0.92830       -5.19110        0.91120
H          1.51490       -4.76920        1.03770
H          2.38640       -2.50730        0.61260
H          2.74720        2.01430        1.78150
H          4.83350        0.37800        3.23750
H          3.90150        1.88950        3.74690
H          7.86620        0.46840       -1.69480
H          6.66490       -1.35260       -2.97430
H          7.49810       -0.02300       -3.81520
H          4.75780       -0.12160       -3.47680
H          5.25160       -0.44210       -4.97610
H          3.70650        1.51130       -4.20590
H          5.22250        2.14670       -4.87520
H          4.50160        1.85190       -1.82740
H          4.81470        3.31810       -2.79920
H          6.90350        2.68560       -1.58680
H          7.15580        2.25900       -3.20300
H          6.52920        0.68440        2.24100
H          8.72320        0.27270        1.44970
H          8.59660        1.66350        2.45210
H          8.71600        1.99510       -0.59930
H         10.05260        2.21690        0.51970
H          8.91240        4.40520       -0.01420
H          8.87690        3.96220        1.72820
H          6.45880        3.91020       -0.19520
H          6.70100        4.83760        1.19620
H          5.22290        2.91780        1.52850
H          6.60130        2.96540        2.63750
H          9.05230       -0.42540       -0.44280
H          9.63980       -1.86640       -1.23280
H          9.75840       -1.65750        0.55510
H          9.03080       -4.03730       -0.02880
H          7.16610       -5.54140        0.37180
H          4.86720       -4.67520        0.52260
H          4.44140       -2.27190        0.30150
