53

P          1.07530        0.03600        0.05500
C         -0.01730        0.17370        1.48760
C         -1.40030        0.39170        1.42720
C         -2.15670        0.38760        2.61180
C         -1.54290        0.15030        3.84890
C         -0.16810       -0.07140        3.91120
C          0.58910       -0.05320        2.73960
C          0.70730        1.76010       -0.51840
C          0.96910        2.91630        0.23690
C          0.71520        4.19730       -0.28050
C          0.14690        4.35090       -1.54430
C         -0.17520        3.22530       -2.28940
C          0.10700        1.95300       -1.78680
C          0.41110       -1.55770       -0.57290
C         -0.22490       -1.66200       -1.82750
C         -0.78230       -2.86620       -2.26260
C         -0.71850       -3.99630       -1.45520
C         -0.08560       -3.92400       -0.21260
C          0.47820       -2.71510        0.22700
Au         3.53530        0.03600        0.05500
Br         3.81270        2.18540        1.28960
C          3.34300       -1.81190       -0.90580
C          3.81870       -2.93480       -0.39560
N          5.63530        0.03600        0.05500
C          5.65450        0.43580       -1.36050
N          6.36070        0.93680        0.79710
C          7.53670        0.48240        1.03310
C          7.67070       -0.80460        0.52730
C          6.45160       -1.11600       -0.05050
H         -1.88780        0.55240        0.47710
H         -3.22460        0.55270        2.57640
H         -2.12960        0.12880        4.75930
H          0.30900       -0.27060        4.86490
H          1.65360       -0.25170        2.80890
H          1.36100        2.84740        1.22980
H          0.95380        5.07610        0.30200
H         -0.05620        5.33790       -1.94290
H         -0.63800        3.33580       -3.26470
H         -0.15570        1.14670       -2.42570
H         -0.31340       -0.84320       -2.49800
H         -1.27240       -2.91620       -3.22830
H         -1.16270       -4.92470       -1.79500
H         -0.04320       -4.80610        0.41190
H          0.94910       -2.68160        1.19950
H          2.68300       -1.90980       -1.75110
H          4.30090       -2.93240        0.58130
H          3.58660       -3.88270       -0.87320
H          5.09890        1.39100       -1.47250
H          5.14660       -0.30160       -2.02150
H          6.68290        0.61870       -1.76160
H          8.29500        1.04470        1.56200
H          8.54330       -1.44080        0.57470
H          6.21650       -2.04770       -0.54280
