75

P          1.06710       -0.07400        0.00440
C         -0.04110        0.85640       -1.17400
C         -1.28960        1.46360       -0.90050
C         -1.99210        2.16090       -1.90280
C         -1.45550        2.30790       -3.18040
C         -0.22630        1.73680       -3.47330
C          0.45290        1.01020       -2.49840
C          0.59860       -1.69520       -0.66990
C          0.97800       -2.08340       -1.96730
C          0.43530       -3.23100       -2.55480
C         -0.48550       -4.00830       -1.85080
C         -0.84390       -3.65180       -0.55040
C         -0.30090       -2.50750        0.03890
C          0.46370        0.39040        1.65920
C         -0.89870        0.21450        1.99640
C         -1.40840        0.69470        3.20160
C         -0.56460        1.33940        4.10290
C          0.79470        1.49350        3.80200
C          1.30950        1.01910        2.58630
Au         3.52710       -0.07400        0.00440
Br         3.52710       -1.84100        1.89800
C          3.52710        1.39270       -1.56760
C          2.80100        2.50800       -1.63080
P          5.98710       -0.07400        0.00440
C          6.76450        0.16840        1.66950
C          6.51540       -0.72180        2.73890
C          6.96390       -0.46380        4.03400
C          7.65850        0.70790        4.30370
F          8.06660        0.97460        5.56950
C          7.92080        1.60970        3.27180
C          7.48620        1.34290        1.96610
C          6.55480       -1.81760       -0.20400
C          6.07890       -2.50670       -1.33690
C          6.54750       -3.78960       -1.65610
C          7.50560       -4.40930       -0.85320
F          7.97130       -5.64400       -1.16780
C          8.00810       -3.74260        0.25880
C          7.55600       -2.46060        0.57350
C          6.49250        1.30930       -1.03600
C          6.11000        2.62770       -0.73150
C          6.52240        3.68860       -1.54730
C          7.32000        3.44080       -2.66750
F          7.72660        4.47020       -3.45050
C          7.70300        2.13200       -2.97620
C          7.29620        1.07330       -2.15200
H         -1.76700        1.43180        0.04750
H         -2.94980        2.61280       -1.68210
H         -1.98250        2.87460       -3.94200
H          0.20830        1.86410       -4.45850
H          1.40400        0.59670       -2.76750
H          1.66150       -1.49150       -2.55540
H          0.70590       -3.50320       -3.56790
H         -0.92880       -4.88030       -2.31450
H         -1.56630       -4.24730       -0.00680
H         -0.63080       -2.24320        1.02900
H         -1.58670       -0.26200        1.31480
H         -2.46380        0.58300        3.42440
H         -0.96760        1.72460        5.03180
H          1.44080        1.99640        4.50290
H          2.35330        1.17950        2.34090
H          4.28860        1.27160       -2.32830
H          2.09490        2.78400       -0.86080
H          2.97970        3.19000       -2.46160
H          5.97470       -1.63130        2.59260
H          6.75290       -1.16910        4.82980
H          8.44300        2.53060        3.48980
H          7.68690        2.08690        1.21620
H          5.35840       -2.03960       -1.99630
H          6.18250       -4.29890       -2.53840
H          8.77400       -4.20760        0.86880
H          8.05530       -1.99920        1.40430
H          5.49760        2.83340        0.13690
H          6.22860        4.70260       -1.30330
H          8.32260        1.94170       -3.84350
H          7.59630        0.06230       -2.41590
