46

P          1.04700        0.07160       -0.05170
C          0.25940        1.04440       -1.43680
C         -1.26730        1.17390       -1.52280
C          0.85780        2.46400       -1.39780
C          0.65090       -1.72980       -0.30720
C          1.23590       -2.52790        0.86060
C         -0.85520       -2.01900       -0.36980
C          0.30140        0.91500        1.38740
Cu         3.50700        0.07160       -0.05170
Br         3.45990       -1.43620       -2.04560
C          3.52800        0.96070        1.86050
C          3.04350        2.13770        2.23560
N          5.60700        0.07160       -0.05170
C          6.32000        1.15740        0.39740
C          5.65760        2.48940        0.59580
C          7.72260        1.14980        0.38910
C          8.39920        0.03700       -0.08450
C          7.67130       -1.03870       -0.59390
C          6.28770       -0.98380       -0.60240
H          0.62250        0.58100       -2.38170
H         -1.69640        1.65140       -0.62360
H         -1.78800        0.23750       -1.73170
H         -1.51820        1.82190       -2.40190
H          0.50710        3.03010       -0.51140
H          0.56180        3.04280       -2.29780
H          1.96920        2.42410       -1.37320
H          1.07650       -2.11300       -1.24800
H          0.77550       -2.20830        1.82090
H          2.33420       -2.39020        0.91820
H          1.03040       -3.61240        0.72150
H         -1.39260       -1.58190        0.49540
H         -1.03770       -3.11680       -0.38170
H         -1.27740       -1.67750       -1.32270
H         -0.80130        0.80620        1.31950
H          0.52220        1.99020        1.43970
H          0.61810        0.40810        2.32060
H          4.02290        0.35730        2.61730
H          2.56430        2.80270        1.52930
H          3.15320        2.44380        3.27270
H          4.60660        2.47140        0.25450
H          6.10680        3.21020       -0.12650
H          5.78540        2.88400        1.62040
H          8.28410        2.02820        0.68870
H          9.48520        0.02010       -0.10030
H          8.19650       -1.90540       -0.97710
H          5.76860       -1.85310       -0.97290
