105

P          1.06130       -0.01650        0.07720
C          0.28970        1.17740        1.31860
C          0.90560        1.40580        2.60740
C          2.25190        0.88840        3.04890
C          0.24940        2.18790        3.59000
C         -0.98160        2.76900        3.34080
C         -1.57030        2.59600        2.10490
C         -0.94690        1.82690        1.11860
C          0.63900        0.75720       -1.57890
C         -0.68390        0.91390       -2.17170
C         -2.01930        0.47140       -1.60950
C         -0.81360        1.45100       -3.47070
C          0.29820        1.76020       -4.23640
C          1.56380        1.52100       -3.72920
C          1.71900        1.03100       -2.43140
C          0.29360       -1.63080        0.44630
C         -0.01420       -2.58960       -0.57450
C          0.38180       -2.47130       -2.02510
C         -0.74220       -3.74450       -0.24000
C         -1.14300       -3.98110        1.07030
C         -0.82070       -3.06880        2.07010
C         -0.11770       -1.90260        1.76160
Cu         3.52130       -0.01650        0.07720
Br         3.52130        2.53840       -0.34750
C          3.52130       -2.13740        0.42980
C          4.33280       -3.04720       -0.08940
P          5.98130       -0.01650        0.07720
C          6.47920        0.16420       -1.80780
C          5.82350        1.33340       -2.58490
C          6.65080        2.63190       -2.58630
C          8.05480        2.39030       -3.16820
C          8.80060        1.17910       -2.57000
C          7.88910       -0.02050       -2.50870
C          6.55280        1.74760        0.68810
C          6.26180        1.95340        2.18940
C          7.27600        1.19660        3.09050
C          8.73110        1.55380        2.84390
C          9.04410        1.38200        1.35820
C          8.04190        2.24170        0.57310
C          6.60680       -1.70820        0.86660
C          7.44090       -2.72760        0.20340
C          7.75300       -2.85990       -1.24640
C          7.99060       -3.82430        0.87740
C          7.77210       -4.07640        2.20650
C          8.39690       -5.27640        2.86670
C          6.92600       -3.22320        2.88390
C          6.31830       -2.08970        2.28220
C          5.32080       -1.42520        3.25820
H          2.87670        0.52510        2.21890
H          2.12850        0.10340        3.82510
H          2.82100        1.72010        3.53140
H          0.70200        2.36060        4.56240
H         -1.47410        3.36550        4.10100
H         -2.52610        3.05670        1.89950
H         -1.47390        1.76960        0.23310
H         -1.93690       -0.09170       -0.66130
H         -2.53150       -0.20250       -2.32860
H         -2.68880        1.35900       -1.49560
H         -1.79280        1.58880       -3.92140
H          0.16920        2.13120       -5.24750
H          2.42780        1.70220       -4.35430
H          2.71610        0.79970       -2.11030
H          1.05920       -1.63320       -2.23630
H         -0.52430       -2.38670       -2.66420
H          0.93340       -3.38850       -2.32570
H         -1.00220       -4.47070       -1.00340
H         -1.70370       -4.87590        1.30920
H         -1.13300       -3.25820        3.08750
H          0.09030       -1.20870        2.55980
H          2.68470       -2.53140        0.99130
H          5.09750       -2.76300       -0.78290
H          4.18440       -4.09990        0.13270
H          5.87710       -0.69370       -2.17550
H          4.79370        1.47710       -2.27520
H          5.73170        1.03420       -3.65610
H          6.72870        3.08350       -1.60300
H          6.13010        3.39880       -3.19480
H          8.67570        3.30590       -3.07180
H          7.91220        2.17700       -4.24750
H          9.26540        1.25040       -1.58730
H          9.68140        0.96350       -3.20840
H          8.53170       -0.81220       -2.15560
H          7.67080       -0.26450       -3.57830
H          5.96570        2.49540        0.17730
H          5.21150        1.67830        2.40650
H          6.36020        3.04030        2.43130
H          7.26230        0.13930        2.84670
H          7.02230        1.36590        4.15900
H          9.38450        0.89210        3.45740
H          8.91680        2.60400        3.15360
H          8.97300        0.31870        1.03650
H         10.09060        1.72130        1.19280
H          8.34680        2.45400       -0.42350
H          8.12960        3.27680        0.97950
H          7.08820       -2.30350       -1.88610
H          7.49720       -3.88730       -1.58700
H          8.84540       -2.73700       -1.41090
H          8.61750       -4.53550        0.33880
H          9.00610       -5.87200        2.14220
H          7.60330       -5.95040        3.25200
H          9.06170       -4.96790        3.68830
H          6.73710       -3.49650        3.91600
H          5.31540       -1.93810        4.25390
H          4.29250       -1.52900        2.88490
H          5.44090       -0.38400        3.55870
