60

P          0.92480        0.03830       -0.05360
C         -0.15040        0.43660        1.38670
C         -1.55060        0.52430        1.32570
C         -2.30920        0.60540        2.50940
C         -1.68540        0.59220        3.76190
F         -2.42870        0.62270        4.89930
C         -0.29660        0.51970        3.84090
C          0.46710        0.44690        2.66570
C          0.54240        1.50480       -1.09080
C          0.18810        2.76350       -0.58400
C         -0.13340        3.81780       -1.45700
C         -0.12590        3.62820       -2.84270
F         -0.44600        4.64850       -3.67900
C          0.21060        2.38490       -3.36540
C          0.54900        1.33870       -2.50150
C          0.17650       -1.60950       -0.36010
C          0.06730       -2.12220       -1.66640
C         -0.60170       -3.32560       -1.91140
C         -1.16770       -4.04260       -0.85750
F         -1.84400       -5.19190       -1.10090
C         -1.03910       -3.57310        0.44760
C         -0.36990       -2.37430        0.69770
Cu         3.38480        0.03830       -0.05360
Br         3.43890        2.36710        0.79950
C          3.39430       -1.93670       -0.81220
C          4.47190       -2.63890       -1.17680
N          5.48480        0.03830       -0.05360
C          6.30850        0.02350       -1.18550
N          5.80970        0.16070       -2.54190
C          4.53710        0.78270       -2.85160
C          6.59520       -0.24570       -3.71010
C          7.71190       -0.02330       -0.99610
C          8.25590       -0.12750        0.26940
C          7.42070       -0.14560        1.37180
C          6.03920       -0.02210        1.19400
H         -2.05530        0.47810        0.37460
H         -3.38880        0.64280        2.46270
H          0.18130        0.48590        4.81690
H          1.54030        0.33420        2.77050
H          0.16140        2.93640        0.47860
H         -0.39610        4.78680       -1.05940
H          0.20720        2.23120       -4.44160
H          0.80050        0.40330       -2.96690
H          0.47940       -1.60360       -2.50880
H         -0.69460       -3.69380       -2.92470
H         -1.47160       -4.12870        1.26990
H         -0.30630       -2.05200        1.72610
H          2.46620       -2.48240       -0.84000
H          5.46370       -2.23950       -1.20520
H          4.36300       -3.67140       -1.48610
H          4.00650        1.13740       -1.95330
H          3.90090        0.06860       -3.41520
H          4.71550        1.66820       -3.50750
H          7.52720       -0.78800       -3.47020
H          6.85450        0.63810       -4.33550
H          6.00680       -0.95570       -4.32520
H          8.41830        0.04000       -1.80900
H          9.33200       -0.19020        0.38510
H          7.85010       -0.25930        2.35800
H          5.39720       -0.06530        2.06200
