71

P          1.05750        0.04280        0.06970
C          0.30310       -0.80820       -1.41580
C         -1.01630       -1.28960       -1.77460
C         -2.25720       -1.24680       -0.94040
C         -1.21660       -1.87740       -3.04780
C         -0.19710       -1.97220       -3.97980
C          1.05480       -1.47720       -3.67470
C          1.29780       -0.91760       -2.42130
C          0.44360       -1.07590        1.46290
C          1.16000       -1.86050        2.43800
C          2.64040       -1.94710        2.58080
C          0.46010       -2.55850        3.45660
C         -0.91530       -2.44670        3.59700
C         -1.61000       -1.60880        2.75040
C         -0.93910       -0.93120        1.73280
C          0.33700        1.71320        0.22200
C          0.09880        2.30940        1.50410
C          0.57560        1.74850        2.82210
C         -0.64100        3.50080        1.58750
C         -1.10990        4.12790        0.44150
C         -0.84590        3.57950       -0.81160
C         -0.14130        2.37330       -0.92240
Cu         3.51750        0.04280        0.06970
Br         3.51750       -2.52070       -0.29930
C          3.51750        2.17090        0.37600
C          3.67620        2.66650        1.60210
C          5.66750        0.04280        0.06970
N          6.54230        1.14590        0.10010
C          6.41350        2.61460        0.02300
C          7.81700        0.66120        0.11280
C          9.10340        1.45080        0.15100
C          7.78770       -0.68340        0.08510
C          9.02060       -1.57870        0.06280
N          6.50300       -1.09830        0.05570
C          6.29630       -2.55400        0.05490
H         -2.48570       -0.19670       -0.67240
H         -2.16370       -1.95480       -0.09850
H         -3.15770       -1.60600       -1.48160
H         -2.18350       -2.27230       -3.33810
H         -0.38710       -2.41970       -4.94820
H          1.84390       -1.52560       -4.41430
H          2.29870       -0.53820       -2.25150
H          3.15730       -1.24490        1.91680
H          2.96690       -3.00340        2.45380
H          2.92190       -1.63030        3.60880
H          0.98930       -3.15750        4.18860
H         -1.43210       -2.96180        4.39980
H         -2.67510       -1.45990        2.89460
H         -1.51840       -0.23680        1.17350
H          1.26300        0.89680        2.72390
H         -0.29370        1.46210        3.45650
H          1.15350        2.52910        3.35930
H         -0.85940        3.94330        2.55530
H         -1.68150        5.04570        0.52990
H         -1.21210        4.08100       -1.69630
H          0.01340        1.95110       -1.90490
H          3.22710        2.83190       -0.43550
H          3.85690        2.00030        2.43750
H          3.58290        3.73460        1.77280
H          5.48430        3.03730       -0.31020
H          7.05620        2.98530       -0.80510
H          6.76160        3.07110        0.97390
H          8.98610        2.54040        0.18770
H          9.69700        1.20340       -0.76690
H          9.69450        1.14340        1.03750
H          9.97420       -1.01850        0.06650
H          9.01480       -2.20010       -0.86080
H          9.02980       -2.23860        0.95470
H          7.20180       -3.17270        0.13550
H          5.91390       -2.87800       -0.93450
H          5.72950       -2.85530        0.96200
