88

P          0.93430       -0.04640        0.05950
C          0.24460        1.61730       -0.41450
C         -1.15410        1.89630       -0.44510
C         -2.21430        0.95400        0.06290
C         -1.61540        3.12850       -0.96070
C         -0.72850        4.09090       -1.45460
C         -1.18100        5.37290       -2.08450
C          0.62480        3.85850       -1.39820
C          1.13520        2.66930       -0.89500
C          2.64270        2.61900       -1.09230
C          0.69080       -1.09900       -1.65350
C          1.31390       -0.68930       -2.90680
C          1.77140        0.66270       -3.28760
C          1.60380       -1.60470       -3.92430
C          1.22240       -2.91960       -3.85910
C          1.70050       -3.90280       -4.89220
C          0.36760       -3.29320       -2.83410
C          0.03590       -2.41120       -1.78660
C         -1.03890       -3.02930       -0.91420
C          0.33470       -0.15080        1.88270
C          0.09670       -1.48080        2.40840
C          0.31370       -2.76330        1.68180
C         -0.40560       -1.71070        3.69260
C         -0.67880       -0.67660        4.57190
C         -1.20160       -0.98560        5.94030
C         -0.48590        0.62090        4.11410
C         -0.01520        0.92480        2.80690
C          0.03190        2.41070        2.52810
Cu         3.39430       -0.04640        0.05950
Br         3.39430        1.90500        1.76250
C          3.39430       -1.66630       -1.35420
C          3.17820       -2.94590       -1.05190
P          5.85430       -0.04640        0.05950
N          7.15890        1.09200        0.49550
C          7.01450        1.76850        1.79570
C          8.53140        0.88460        0.07180
O          6.01900       -0.88170        1.53310
C          5.85610       -2.25380        1.26030
O          6.32460       -0.60730       -1.47900
C          5.95280        0.43500       -2.37410
H         -1.81710        0.01500        0.47910
H         -2.92430        0.70150       -0.74780
H         -2.77350        1.46580        0.87860
H         -2.67540        3.33290       -1.00080
H         -2.28100        5.46170       -2.10240
H         -0.81070        5.39570       -3.13670
H         -0.73700        6.23790       -1.54490
H          1.30110        4.60730       -1.80360
H          3.15240        3.43490       -0.53990
H          2.91300        2.76790       -2.15950
H          3.08510        1.66820       -0.86070
H          1.19550        1.37690       -2.77260
H          1.35930        0.86920       -4.30400
H          2.85570        0.73490       -3.34840
H          2.16820       -1.28780       -4.79610
H          2.40590       -3.43030       -5.61190
H          0.86560       -4.36090       -5.45670
H          2.28120       -4.70820       -4.37920
H         -0.03130       -4.31020       -2.86710
H         -1.88400       -3.33950       -1.58100
H         -1.48600       -2.31060       -0.20950
H         -0.68360       -3.98570       -0.46000
H          0.78650       -2.61750        0.70960
H         -0.68400       -3.25770        1.61300
H          0.96490       -3.45310        2.24690
H         -0.58930       -2.72790        4.03140
H         -1.31650       -2.08150        6.10840
H         -2.19790       -0.52040        6.10440
H         -0.48910       -0.60850        6.70080
H         -0.74720        1.40940        4.81170
H         -0.22920        3.01340        3.42570
H         -0.72910        2.70860        1.80320
H          1.01370        2.76510        2.21550
H          3.78560       -1.47670       -2.34440
H          2.92150       -3.26790       -0.05410
H          3.32230       -3.69290       -1.83130
H          5.96370        1.85570        2.09980
H          7.39100        2.81350        1.72770
H          7.55040        1.22340        2.59610
H          8.56250        0.60900       -0.99840
H          9.02300        0.13740        0.71890
H          9.06930        1.85970        0.16130
H          6.37420       -2.83760        2.04730
H          6.32060       -2.58870        0.30150
H          4.77920       -2.51340        1.28940
H          6.45940        0.28670       -3.34860
H          6.24290        1.46110       -2.03950
H          4.86390        0.43160       -2.56020
