47

P          0.92570       -0.01870        0.06420
C          0.15520        1.63600       -0.33150
C         -1.37260        1.80590       -0.31290
C          0.76090        2.66960        0.63650
C          0.54570       -1.18670       -1.32730
C          1.09140       -2.57070       -0.96910
C         -0.96090       -1.35040       -1.57540
C          0.17980       -0.31440        1.70590
Cu         3.38570       -0.01870        0.06420
Br         3.38570        0.73030       -2.41510
C          3.38570       -0.64050        2.12230
C          2.89590       -1.77520        2.61810
C          5.53570       -0.01870        0.06420
N          6.35910        1.00450       -0.28230
C          5.96680        2.39040       -0.53620
C          7.60790        0.53780       -0.14090
Cl         9.07200        1.47050       -0.37250
C          7.54280       -0.78160        0.25520
Cl         8.90450       -1.85860        0.50680
N          6.24530       -1.11850        0.39410
C          5.70020       -2.46180        0.62480
H          0.51890        1.90990       -1.34570
H         -1.80750        1.57930        0.67800
H         -1.89800        1.23890       -1.08530
H         -1.60960        2.86780       -0.54860
H          0.41190        2.50640        1.67650
H          0.46910        3.70120        0.34610
H          1.87150        2.61730        0.62280
H          1.01970       -0.84630       -2.27010
H          0.61740       -2.95460       -0.04110
H          2.19430       -2.51760       -0.81550
H          0.89190       -3.28960       -1.78970
H         -1.50150       -1.59280       -0.63370
H         -1.15630       -2.16710       -2.30240
H         -1.38420       -0.46210       -2.05740
H         -0.92510       -0.29140        1.59590
H          0.49150        0.42430        2.46460
H          0.41060       -1.33700        2.05000
H          3.87230        0.04690        2.80670
H          2.41690       -2.51350        1.99000
H          2.98180       -1.95570        3.68790
H          4.86440        2.50980       -0.48530
H          6.36390        2.73890       -1.51000
H          6.39420        3.02230        0.27900
H          6.50850       -3.21390        0.68300
H          5.06450       -2.74060       -0.25480
H          5.10640       -2.51170        1.53820
