86

P          1.03010       -0.08010        0.05180
C          0.09550       -1.06280        1.25670
C         -1.29470       -0.96760        1.41560
C         -1.92950       -1.69760        2.42600
C         -1.18150       -2.52220        3.29500
O         -1.76130       -3.22870        4.29780
C         -3.10650       -3.20180        4.59300
C          0.19920       -2.61480        3.13220
C          0.83020       -1.88380        2.12610
C          0.34040        1.51030        0.53280
C          0.26900        1.87900        1.88300
C         -0.34010        3.07800        2.25190
C         -0.87250        3.93770        1.27060
O         -1.49940        5.10050        1.58700
C         -1.79270        5.51950        2.86860
C         -0.77030        3.57800       -0.07980
C         -0.17880        2.36540       -0.44670
C          0.49820       -1.02150       -1.41410
C         -0.39240       -2.11600       -1.38300
C         -0.81990       -2.72030       -2.55470
C         -0.36550       -2.26620       -3.80170
O         -0.71760       -2.88600       -4.95670
C         -1.39040       -4.09170       -5.01260
C          0.49530       -1.16310       -3.84920
C          0.91670       -0.54230       -2.66670
Cu         3.49010       -0.08010        0.05180
Br         3.32010       -2.54540       -0.38850
C          3.43780        2.02040        0.41570
C          4.45570        2.85510        0.58630
C          5.64010       -0.08010        0.05180
N          6.41110        0.47220       -0.92590
C          6.03070        1.02550       -2.26060
C          4.52170        0.88230       -2.55170
C          6.45000        2.50070       -2.38450
C          6.75700        0.21230       -3.36090
C          7.68040        0.28320       -0.52200
C          7.67770       -0.39770        0.67390
N          6.40580       -0.65960        1.03500
C          5.99680       -1.22310        2.36190
C          5.83510       -0.06220        3.36050
C          4.67690       -1.95830        2.29590
C          7.03630       -2.23160        2.90850
H         -1.86810       -0.31930        0.77340
H         -2.99180       -1.58790        2.53140
H         -3.31040       -3.87170        5.45390
H         -3.68960       -3.55640        3.71720
H         -3.41210       -2.16910        4.86270
H          0.79390       -3.23860        3.79290
H          1.89460       -1.96750        2.03910
H          0.65680        1.22780        2.65600
H         -0.40190        3.31820        3.30380
H         -2.33140        6.48700        2.82460
H         -0.85960        5.65430        3.45560
H         -2.44880        4.77260        3.36680
H         -1.16780        4.23080       -0.84680
H         -0.12910        2.09370       -1.49310
H         -0.80060       -2.53130       -0.48140
H         -1.51130       -3.54710       -2.47130
H         -1.46340       -4.43100       -6.06350
H         -2.41280       -3.99110       -4.58910
H         -0.82380       -4.85820       -4.43700
H          0.84270       -0.78530       -4.80320
H          1.57080        0.31870       -2.72970
H          2.48660        2.51210        0.45680
H          5.48200        2.54130        0.56890
H          4.22940        3.91210        0.73850
H          3.91030        1.49050       -1.88240
H          4.20420       -0.18020       -2.46960
H          4.28270        1.23450       -3.57830
H          5.89660        3.13710       -1.66910
H          6.23570        2.87970       -3.40800
H          7.53790        2.61650       -2.19670
H          6.47880       -0.86240       -3.30160
H          7.85990        0.29060       -3.26980
H          6.48520        0.58330       -4.37370
H          8.56600        0.59100       -1.06480
H          8.56250       -0.66290        1.23430
H          5.06590        0.65580        3.00110
H          6.79350        0.48210        3.48770
H          5.51380       -0.44210        4.35610
H          3.91340       -1.25530        1.92330
H          4.34240       -2.31330        3.29420
H          4.80440       -2.86170        1.67150
H          8.01020       -1.75130        3.12570
H          7.19150       -3.05770        2.18070
H          6.67510       -2.68150        3.86130
