55

P          1.09380        0.00990       -0.03310
C          0.07150        1.41110       -0.56850
C         -0.51340        2.29800        0.35200
C         -1.10290        3.48900       -0.09540
C         -1.10030        3.81500       -1.45780
F         -1.63740        4.98200       -1.88750
C         -0.50550        2.95000       -2.37580
C          0.08350        1.76850       -1.93370
C          0.95610       -1.07930       -1.48420
C          2.10470       -1.51880       -2.16380
C          1.99980       -2.35130       -3.28150
C          0.74440       -2.74850       -3.74430
F          0.64480       -3.55130       -4.83180
C         -0.40840       -2.30780       -3.09200
C         -0.30410       -1.48190       -1.96730
C          0.29120       -0.67640        1.42840
C         -1.10170       -0.87030        1.43180
C         -1.75080       -1.36600        2.56060
C         -1.01410       -1.67020        3.70650
F         -1.64920       -2.14840        4.80970
C          0.36740       -1.47490        3.71940
C          1.01670       -0.97660        2.58420
Cu         3.55380        0.00990       -0.03310
Br         3.55380       -2.49280        0.63370
C          3.55380        2.08740       -0.58660
C          4.44880        3.08940       -0.56480
N          5.65380        0.00990       -0.03310
C          6.33760        0.83270       -0.88610
C          7.72070        0.76550       -1.03180
C          8.45200       -0.13830       -0.26470
C          9.94010       -0.23170       -0.40830
C          7.76390       -0.97960        0.61140
C          6.36640       -0.91740        0.68130
H         -0.47660        2.09370        1.41350
H         -1.53500        4.18290        0.61290
H         -0.46990        3.20800       -3.42770
H          0.58530        1.15680       -2.67170
H          3.08950       -1.21810       -1.84350
H          2.89390       -2.68750       -3.78880
H         -1.38250       -2.60350       -3.45780
H         -1.21390       -1.15000       -1.49520
H         -1.70020       -0.62290        0.56460
H         -2.82300       -1.50230        2.55110
H          0.93600       -1.70850        4.61080
H          2.09110       -0.81770        2.61540
H          2.56960        2.41050       -0.89550
H          5.46670        3.01780       -0.21620
H          4.13300        4.07420       -0.89970
H          5.83080        1.45300       -1.59560
H          8.21020        1.39610       -1.76500
H         10.31780        0.46850       -1.18530
H         10.21810       -1.26310       -0.71060
H         10.42820        0.01510        0.55650
H          8.30360       -1.69380        1.22040
H          5.87810       -1.58630        1.36510
