111

P          0.93520        0.07530        0.01160
C          0.07850       -1.51670        0.16850
C         -1.30540       -1.75820        0.26430
C         -1.77230       -3.09370        0.29040
C         -3.23100       -3.42300        0.40130
C         -0.86800       -4.16610        0.19660
C          0.49180       -3.91910        0.09560
C          0.94650       -2.60760        0.09340
C          0.51020        0.80970        1.63270
C          0.97560        2.12470        1.83900
C          0.65640        2.83780        3.00240
C          1.14600        4.24280        3.19360
C         -0.12720        2.22980        3.98560
C         -0.58810        0.92380        3.80670
C         -0.27980        0.20350        2.64780
C          0.07020        0.74310       -1.41940
C         -0.33440       -0.05710       -2.50040
C         -0.90270        0.53490       -3.64420
C         -1.29210       -0.30070       -4.82270
C         -1.07420        1.92710       -3.69890
C         -0.69480        2.72510       -2.61970
C         -0.12950        2.14130       -1.48520
Cu         3.39520        0.07530        0.01160
Br         2.91110       -0.73010        2.28850
C          3.50730        0.83350       -2.02910
C          2.69570        1.28810       -2.98600
P          5.85520        0.07530        0.01160
C          6.68590        0.34920        1.71110
C          6.40580       -0.48650        2.86820
C          5.55470       -1.72250        2.94400
C          7.00590       -0.25760        4.11360
C          7.94560        0.72450        4.30100
C          8.61510        0.84050        5.64790
C          8.27370        1.54630        3.22950
C          7.66220        1.39680        1.95390
C          8.14550        2.36120        0.90380
C          6.43260       -1.73220        0.00470
C          5.65950       -2.73380       -0.69100
C          4.37670       -2.47740       -1.42490
C          6.10890       -4.05410       -0.81300
C          7.31820       -4.45990       -0.27860
C          7.80050       -5.87390       -0.40560
C          8.11940       -3.53270        0.35080
C          7.74300       -2.18600        0.48750
C          8.85060       -1.35030        1.11230
C          6.39370        1.18240       -1.43750
C          5.99480        2.57460       -1.56060
C          5.04710        3.29660       -0.63630
C          6.39590        3.34290       -2.67330
C          7.12630        2.79640       -3.71770
C          7.51130        3.60920       -4.92670
C          7.46020        1.44940       -3.66310
C          7.09700        0.64130       -2.57110
C          7.40880       -0.81460       -2.73810
H         -1.99860       -0.92730        0.31050
H         -3.84960       -2.50830        0.47220
H         -3.39400       -4.04270        1.30940
H         -3.54600       -4.00910       -0.48930
H         -1.21470       -5.19280        0.19880
H          1.19840       -4.73790        0.01420
H          2.00170       -2.43000        0.00650
H          1.57860        2.60060        1.08080
H          1.73920        4.59350        2.32390
H          1.78090        4.30050        4.10080
H          0.27570        4.92670        3.31530
H         -0.38960        2.76680        4.89070
H         -1.19910        0.45830        4.56970
H         -0.66290       -0.78980        2.54770
H         -0.17180       -1.12740       -2.47310
H         -1.09490       -1.37820       -4.63750
H         -0.70200        0.01580       -5.70790
H         -2.37290       -0.16650       -5.03430
H         -1.49190        2.39530       -4.58160
H         -0.81180        3.80080       -2.67410
H          0.18660        2.79320       -0.68640
H          4.45260        0.86120       -2.46430
H          1.67180        1.40610       -2.95440
H          3.11070        1.61370       -3.94100
H          5.08740       -2.01230        1.99610
H          4.80920       -1.58640        3.75430
H          6.17230       -2.58790        3.25790
H          6.77020       -0.90570        4.95270
H          8.21460        0.08760        6.37070
H          8.46230        1.84200        6.09260
H          9.69910        0.63170        5.54220
H          9.02430        2.30950        3.40000
H          8.95230        3.02810        1.28240
H          7.33110        3.02720        0.60210
H          8.57410        1.81810        0.03520
H          4.01120       -1.46370       -1.32160
H          3.61540       -3.19380       -1.07680
H          4.52140       -2.66690       -2.51090
H          5.50840       -4.78090       -1.34970
H          7.07590       -6.51000       -0.95690
H          7.95350       -6.30250        0.60740
H          8.76820       -5.88400       -0.95100
H          9.07650       -3.88110        0.72540
H          9.80770       -1.90210        1.21810
H          8.65550       -1.10500        2.16280
H          9.07510       -0.46720        0.48570
H          4.63980        2.65960        0.16870
H          4.17940        3.63630       -1.25480
H          5.51030        4.21470       -0.21800
H          6.08850        4.38060       -2.75120
H          7.17200        4.66380       -4.84850
H          7.04480        3.17000       -5.83500
H          8.61560        3.60670       -5.06160
H          7.98200        1.03130       -4.51530
H          7.86790       -1.04320       -3.72380
H          6.44950       -1.35900       -2.74780
H          8.09680       -1.17730       -1.95830
