61

P          1.04670        0.04450       -0.07640
C          0.07980        0.41930        1.39900
C         -1.31050        0.63180        1.40860
C         -1.97560        0.90140        2.61910
C         -1.25880        0.95100        3.82870
C         -1.94360        1.20240        5.14110
C          0.12640        0.75560        3.81700
C          0.77660        0.51840        2.61650
C          0.66640        1.46830       -1.12010
C          1.07120        2.75130       -0.71900
C          0.84970        3.85600       -1.54610
C          0.20610        3.69830       -2.78200
C         -0.01240        4.87800       -3.68760
C         -0.22590        2.42010       -3.17050
C          0.00140        1.31070       -2.34340
C          0.62890       -1.73530       -0.11700
C         -0.22530       -2.38400        0.80970
C         -0.53830       -3.73460        0.67230
C         -0.00330       -4.48100       -0.38040
C         -0.30530       -5.94460       -0.49980
C          0.82820       -3.84950       -1.31570
C          1.13410       -2.48880       -1.18770
Cu         3.50670        0.04450       -0.07640
Br         3.50670       -1.69480        1.84270
C          3.50670        1.48830       -1.66950
C          3.17890        1.13840       -2.91230
N          5.60670        0.04450       -0.07640
C          6.30620        0.69990       -1.06890
C          7.70120        0.65900       -1.15240
Cl         8.53270        1.45210       -2.48020
C          8.42440       -0.03320       -0.19590
C          7.74510       -0.67670        0.82450
C          6.34790       -0.63800        0.86310
H         -1.86670        0.57850        0.48820
H         -3.04700        1.05450        2.61380
H         -3.03600        1.34650        5.01420
H         -1.52080        2.11210        5.62360
H         -1.78260        0.33600        5.81940
H          0.69720        0.79540        4.73770
H          1.84530        0.36000        2.63200
H          1.58890        2.88990        0.22140
H          1.19340        4.83040       -1.22630
H          0.39390        5.81450       -3.24710
H         -1.09760        5.02480       -3.86500
H          0.49690        4.70210       -4.66000
H         -0.72590        2.28250       -4.12080
H         -0.32100        0.33060       -2.66680
H         -0.68450       -1.88560        1.64490
H         -1.20010       -4.19630        1.39580
H         -0.97360       -6.29060        0.31870
H          0.64630       -6.51160       -0.42840
H         -0.79400       -6.16380       -1.47140
H          1.23790       -4.41190       -2.14510
H          1.76820       -2.02100       -1.93040
H          4.07880        2.40830       -1.58880
H          2.85200        0.13010       -3.13290
H          3.37170        1.83340       -3.72780
H          5.83730        1.22530       -1.86730
H          9.50470       -0.07750       -0.24600
H          8.29730       -1.21650        1.58330
H          5.91930       -1.15990        1.68290
