74

P          0.94220       -0.00290       -0.08160
C          0.30400        0.59070       -1.67000
C         -1.03420        0.54750       -2.09800
C         -1.36090        0.98330       -3.39710
C         -0.35630        1.44180       -4.27250
C         -0.65580        1.85930       -5.68250
C          0.96620        1.50820       -3.82350
C          1.28100        1.09460       -2.54110
C          0.60360       -1.75480       -0.47430
C          0.43630       -2.30470       -1.76670
C          0.15570       -3.66010       -1.92590
C          0.01360       -4.49480       -0.81690
C         -0.29510       -5.95450       -0.97040
C          0.16010       -3.95820        0.47030
C          0.45690       -2.60730        0.63240
C          0.05940        0.94490        1.18730
C         -0.78300        2.02660        0.87910
C         -1.50920        2.66790        1.88940
C         -1.40100        2.24340        3.22250
C         -2.19730        2.90060        4.31100
C         -0.54680        1.18020        3.53560
C          0.17160        0.53560        2.52630
Cu         3.40220       -0.00290       -0.08160
Br         3.40220       -1.46580       -2.21880
C          3.40220        1.21150        1.69260
C          3.93170        2.43680        1.66620
C          5.55220       -0.00290       -0.08160
N          6.40150       -0.41450       -1.02780
C          6.27300       -0.96130       -2.37690
C          7.78690       -0.23970       -0.66140
C          7.75590        0.66820        0.50460
N          6.41490        0.54170        0.99900
C          6.19650        1.09460        2.31470
C          6.74820        2.36970        2.61640
C          6.43070        3.03720        3.79780
C          5.58280        2.43760        4.72430
C          5.09080        1.14840        4.49420
C          5.41110        0.46570        3.30670
H         -1.80870        0.17500       -1.44260
H         -2.39060        0.94180       -3.73170
H         -1.73490        1.76560       -5.92210
H         -0.08780        1.20520       -6.38450
H         -0.33820        2.91070       -5.85430
H          1.75540        1.86100       -4.48360
H          2.32220        1.15030       -2.22760
H          0.53120       -1.70980       -2.66180
H          0.04940       -4.06380       -2.92880
H         -0.36270       -6.24220       -2.04370
H         -1.26280       -6.18780       -0.48250
H          0.50760       -6.56240       -0.49830
H          0.04390       -4.58800        1.34460
H          0.55470       -2.22680        1.63810
H         -0.90310        2.37470       -0.13470
H         -2.16620        3.48790        1.62730
H         -2.84660        3.70790        3.91060
H         -1.51480        3.33570        5.07010
H         -2.84750        2.14350        4.80030
H         -0.44970        0.83840        4.55940
H          0.80530       -0.29690        2.79860
H          2.71910        1.02050        2.50600
H          4.51090        2.77600        0.81590
H          3.78500        3.10210        2.51300
H          5.49330       -0.54460       -3.01090
H          6.58130       -2.03090       -2.41840
H          7.03480       -0.45900       -3.01220
H          8.41440        0.24180       -1.44370
H          8.20220       -1.23770       -0.40520
H          7.89930        1.71670        0.16100
H          8.54170        0.37370        1.23640
H          7.36560        2.90210        1.90790
H          6.81140        4.03670        3.96880
H          5.29550        2.98940        5.61420
H          4.42730        0.70290        5.21860
H          4.98720       -0.51470        3.12900
