78

P          1.06890        0.04930       -0.05310
C          0.33960       -0.69220       -1.53110
C         -0.91250       -1.31720       -1.64060
C         -1.28480       -1.90610       -2.86210
C         -0.43400       -1.83810       -3.97670
F         -0.79620       -2.40630       -5.15310
C          0.79070       -1.18530       -3.87700
C          1.17620       -0.62770       -2.66160
C          0.72450       -1.36800        1.07260
C          0.44200       -2.70130        0.69530
C          0.04140       -3.64510        1.65700
C         -0.09660       -3.27740        2.99800
F         -0.51800       -4.17770        3.91950
C          0.20170       -1.97790        3.38770
C          0.61840       -1.04420        2.44160
C          0.25620        1.69130        0.01630
C         -0.18280        2.21990        1.24980
C         -0.70080        3.52150        1.35250
C         -0.83770        4.29270        0.21050
F         -1.32210        5.55280        0.30860
C         -0.45750        3.77390       -1.03350
C          0.09010        2.48810       -1.12760
Cu         3.52890        0.04930       -0.05310
Br         3.52890       -2.49730       -0.52490
C          3.52890        2.16340        0.33850
C          2.80210        2.73150        1.28820
P          5.98890        0.04930       -0.05310
C          6.82920        1.31400        1.02410
C          7.56660        0.89840        2.15210
C          7.95360        1.81620        3.14200
C          7.59610        3.15940        3.04140
C          6.90430        3.60050        1.92150
C          6.54170        2.69670        0.92270
C          6.59700       -1.58030        0.57110
C          5.78720       -2.44080        1.33740
C          6.23550       -3.70080        1.74760
C          7.54290       -4.09560        1.48090
C          8.40540       -3.21710        0.82030
C          7.93650       -1.97100        0.36300
C          6.51870        0.53580       -1.76970
C          6.22150       -0.26130       -2.92630
C          5.38960       -1.50930       -2.88690
C          6.73320        0.08650       -4.18880
C          7.53700        1.19900       -4.35160
C          7.85170        1.98390       -3.24220
C          7.36070        1.65790       -1.98230
H         -1.57040       -1.38970       -0.78690
H         -2.22840       -2.42540       -2.94940
H          1.45210       -1.11680       -4.73350
H          2.13950       -0.13230       -2.60460
H          0.50670       -3.03120       -0.32950
H         -0.18730       -4.66070        1.36250
H          0.08910       -1.68260        4.42500
H          0.82690       -0.05410        2.79750
H         -0.08420        1.68450        2.17770
H         -0.96940        3.91520        2.32400
H         -0.58420        4.38040       -1.91940
H          0.39290        2.11780       -2.09700
H          4.11680        2.78390       -0.29940
H          2.23050        2.11110        1.95970
H          2.81190        3.80920        1.41790
H          7.80190       -0.13880        2.32820
H          8.48590        1.47420        4.02040
H          7.84940        3.85670        3.82910
H          6.61470        4.64210        1.84070
H          6.00970        3.10410        0.10080
H          4.79010       -2.15240        1.62390
H          5.56880       -4.37000        2.27840
H          7.89030       -5.06790        1.80800
H          9.43450       -3.50970        0.66070
H          8.62320       -1.31220       -0.15010
H          5.80540       -2.22390       -2.14510
H          5.37190       -2.04730       -3.86270
H          4.34440       -1.22280       -2.67920
H          6.51980       -0.51550       -5.06590
H          7.92850        1.45180       -5.32480
H          8.49410        2.84900       -3.37120
H          7.69250        2.29370       -1.18820
