31

P          0.97650       -0.08130        0.05320
Cl        -0.84560        0.08920       -0.92190
Cl         0.64980       -2.11610        0.33370
Cl         0.34480        1.17230        1.58960
Cu         3.43650       -0.08130        0.05320
Br         3.31600       -2.23620       -1.24730
C          3.29140        1.51400        1.39430
C          3.18970        2.77940        1.00250
N          5.53650       -0.08130        0.05320
C          5.61600       -0.68810        1.39880
C          6.20750        1.20970        0.27670
C          6.24990       -0.88590       -0.92600
C          5.76140       -0.97020       -2.24970
C          6.39010       -1.78730       -3.18620
C          7.53990       -2.51340       -2.84660
C          8.07590       -2.40480       -1.56610
C          7.44770       -1.59260       -0.61670
H          3.25140        1.28440        2.45620
H          3.20350        3.02380       -0.04970
H          3.08520        3.56460        1.74730
H          5.07160       -0.10250        2.16040
H          6.63520       -0.81480        1.80930
H          5.12620       -1.68820        1.37220
H          5.68970        1.86530        0.98810
H          6.30560        1.75250       -0.68340
H          7.24840        1.07160        0.66720
H          4.87480       -0.42750       -2.53650
H          5.98560       -1.88380       -4.19360
H          8.00960       -3.16690       -3.57960
H          8.96520       -2.95330       -1.30900
H          7.90570       -1.56260        0.35800
