43

P          1.27500        0.00000        0.00000
O          0.31690       -1.25860        0.69980
C         -1.06650       -1.09240        0.56150
C         -1.39750        0.22460       -0.12230
C         -2.92990        0.37520       -0.20170
C         -0.73610        1.35660        0.74910
O          0.66570        1.20750        1.02420
O          0.65570       -0.21850       -1.56290
C         -0.72910        0.15950       -1.54060
Cu         3.73500        0.00030       -0.00050
Br         3.73450        2.32880       -1.13460
C          3.73540       -1.93260        0.94100
C          3.74300       -2.06670        2.26390
P          6.19500        0.00070       -0.00090
O          7.26220        1.28380       -0.42380
C          8.61710        1.00590       -0.36470
C          8.87690       -0.45110       -0.07610
C         10.39840       -0.64360       -0.04450
C          8.24970       -0.77860        1.32110
O          6.83050       -0.80590        1.35790
O          6.70400       -0.88470       -1.37070
C          8.09710       -1.25790       -1.19020
H         -1.51110       -1.12590        1.58300
H         -1.47020       -1.95380       -0.01340
H         -3.37310        0.34590        0.81890
H         -3.36780       -0.47310       -0.77470
H         -3.20550        1.32610       -0.69170
H         -1.25580        1.37200        1.73350
H         -0.91110        2.33700        0.26030
H         -1.27150       -0.61190       -2.13170
H         -0.86270        1.13230       -2.05620
H          3.75530       -2.81460        0.30940
H          3.73680       -1.19320        2.90450
H          3.75610       -3.05930        2.70480
H          9.06950        1.66950        0.40610
H          9.05210        1.28510       -1.34860
H         10.84980        0.03220        0.72330
H         10.84600       -0.35900       -1.02410
H         10.67700       -1.68220        0.20210
H          8.62770       -0.05790        2.08390
H          8.59810       -1.78630        1.62250
H          8.61460       -1.07790       -2.15370
H          8.17350       -2.34210       -0.95380
