73

P          0.92910       -0.07040       -0.00340
C         -0.10790       -0.37830        1.58850
C          0.10120        0.57870        2.79860
C         -0.77630        1.83190        2.75430
C         -2.26330        1.45100        2.63330
C         -2.52800        0.49990        1.45340
C         -1.62180       -0.72660        1.54210
C          0.56190        1.83000       -0.60240
C          1.23980        2.24750       -1.91710
C          0.51820        1.57840       -3.12040
C         -0.78670        2.36090       -3.35890
C         -1.64510        2.51740       -2.08650
C         -0.80100        2.66740       -0.77260
C          0.33580       -1.67510       -0.82750
C         -0.91610       -1.74070       -1.53660
C         -1.79490       -0.59400       -1.76160
C         -1.46310       -2.93130       -2.00390
C         -0.83660       -4.13140       -1.77290
C         -1.50310       -5.40880       -2.20260
C          0.37980       -4.13570       -1.09160
C          0.96880       -2.93690       -0.60620
C          2.23120       -3.07750        0.18970
Cu         3.38910       -0.07040       -0.00340
Br         3.38910        0.29070       -2.56810
C          3.38910       -0.37010        2.12560
C          3.65570        0.62230        2.97620
N          5.48910       -0.07040       -0.00340
C          6.19230       -0.29190        1.16480
C          7.58710       -0.24030        1.23010
Cl         8.41650       -0.51520        2.74680
C          8.31320        0.03320        0.08170
C          7.63870        0.24550       -1.10930
C          6.22810        0.18090       -1.13920
H          0.35780       -1.33040        1.91770
H          1.15120        0.85950        2.93880
H         -0.20300        0.02840        3.72120
H         -0.44410        2.47280        1.93090
H         -0.63700        2.41970        3.68970
H         -2.88520        2.36710        2.53580
H         -2.57130        0.93160        3.56820
H         -2.37900        0.98570        0.49480
H         -3.59230        0.18590        1.47210
H         -1.85970       -1.47860        0.77760
H         -1.88250       -1.22330        2.50460
H          1.09160        2.39390        0.19330
H          2.29510        2.19360       -1.73880
H          1.23260        3.34120       -2.12160
H          0.35350        0.49770       -2.94090
H          1.11450        1.65210       -4.05380
H         -1.39190        1.93670       -4.19640
H         -0.47510        3.37350       -3.68650
H         -2.39800        1.72670       -2.02160
H         -2.31740        3.39230       -2.22090
H         -1.44560        2.73980        0.10290
H         -0.46470        3.72910       -0.84060
H         -1.32480        0.21780       -1.25260
H         -2.78990       -0.75420       -1.29390
H         -1.92370       -0.40150       -2.84800
H         -2.42470       -2.91970       -2.51100
H         -2.47930       -5.21640       -2.70290
H         -1.71530       -6.03550       -1.30860
H         -0.85700       -5.96800       -2.90510
H          0.84490       -5.09230       -0.89270
H          2.56020       -4.13760        0.25360
H          2.04150       -2.74970        1.22510
H          3.04700       -2.49260       -0.27430
H          3.06900       -1.31890        2.53460
H          3.89060        1.61430        2.61090
H          3.58380        0.44370        4.04590
H          5.72660       -0.51820        2.09450
H          9.39150        0.08950        0.11130
H          8.18670        0.46280       -2.01310
H          5.81220        0.37420       -2.08990
