75

P          1.05870        0.08100        0.00170
C         -0.00910       -0.01770        1.47830
C          0.73930        1.84030       -0.35820
C          0.11470       -1.17250       -0.92620
Cu         3.51870        0.08100        0.00170
Br         3.51870        2.17410        1.52710
C          3.51870       -1.65660       -1.26450
C          3.01530       -1.70030       -2.49490
P          5.97870        0.08100        0.00170
C          6.86150       -1.00690       -1.37640
C          6.42260       -0.54840       -2.82210
C          7.29320        0.56270       -3.45630
C          8.80500        0.20870       -3.49820
C          9.39160       -0.45420       -2.21960
C          8.37890       -1.46240       -1.59760
C          6.44870        1.96740       -0.36710
C          6.18820        3.38930        0.27710
C          7.17510        3.83820        1.38310
C          8.62110        3.82250        0.85510
C          8.91650        2.42940        0.37070
C          7.92380        2.09020       -0.73740
C          6.38120       -0.72500        1.71920
C          5.36010       -1.15630        2.65280
C          3.89900       -1.24930        2.36600
C          5.66370       -1.58730        3.96730
C          6.96410       -1.69330        4.42380
C          7.28380       -2.14940        5.83080
C          7.98180       -1.39890        3.54630
C          7.73340       -0.91810        2.22800
C          9.00530       -0.70060        1.48990
H         -1.07390        0.19080        1.26610
H          0.36860        0.71160        2.22910
H          0.10310       -1.02840        1.92830
H         -0.35820        2.00710       -0.38780
H          1.16150        2.10110       -1.34880
H          1.14300        2.51180        0.41610
H         -0.97250       -0.94500       -0.81800
H          0.29990       -2.18900       -0.53060
H          0.33860       -1.10960       -2.00650
H          3.97280       -2.55380       -0.85680
H          2.55530       -0.83170       -2.94670
H          3.06690       -2.63290       -3.05190
H          6.35530       -1.97020       -1.19510
H          5.35720       -0.24880       -2.83520
H          6.52480       -1.41560       -3.50580
H          7.10520        1.53450       -2.97810
H          6.95790        0.77780       -4.49450
H          9.41220        1.10000       -3.78950
H          8.90850       -0.53970       -4.30470
H          9.79380        0.26740       -1.48130
H         10.34170       -0.95730       -2.49410
H          8.79980       -1.99500       -0.73170
H          8.33610       -2.26240       -2.36960
H          5.86470        2.04370       -1.30690
H          5.17450        3.64650        0.53900
H          6.35500        4.12850       -0.54400
H          7.08370        3.17870        2.26660
H          6.95470        4.88540        1.68030
H          9.34660        4.10590        1.64610
H          8.74830        4.53520        0.00620
H          8.81500        1.76740        1.23560
H          9.95340        2.36860       -0.03410
H          8.11820        1.15960       -1.12000
H          8.07190        2.84630       -1.54420
H          3.72240       -1.36600        1.31200
H          3.31100       -0.47070        2.89730
H          3.53780       -2.23960        2.71920
H          4.87110       -1.87700        4.65160
H          6.36650       -2.35160        6.42110
H          7.86490       -1.36800        6.36140
H          7.89250       -3.08440        5.80860
H          9.00820       -1.51930        3.88850
H          9.69590       -0.04330        2.05830
H          8.81430       -0.25520        0.52250
H          9.51880       -1.67840        1.36990
