52

P          0.93650       -0.07220        0.02740
O          0.54580        0.19100       -1.61270
C         -0.81890       -0.09490       -1.80260
C         -1.12450       -0.08090       -3.29420
O          0.74390       -1.37560        1.10440
C          1.27460       -2.49970        0.42530
C          0.83780       -3.79570        1.09100
C         -0.01340        1.13410        0.97800
C         -0.97350        0.84130        1.95530
C         -1.53960        1.89210        2.69730
C         -1.13230        3.21820        2.47870
C         -0.17560        3.50140        1.51040
C          0.37830        2.46500        0.76250
Cu         3.39650       -0.07220        0.02740
Br         3.39650       -0.15440        2.61610
C          3.39650       -0.00400       -2.12150
C          3.41980        1.15240       -2.77790
C          5.54650       -0.07220        0.02740
N          6.29490        0.36150        1.00610
C          5.89090        1.22020        2.10010
C          7.69650        0.29350        0.68790
C          7.72530       -0.59120       -0.52100
N          6.39320       -0.46030       -1.06550
C          6.02700       -1.30100       -2.18390
H         -1.44390        0.68920       -1.32200
H         -1.08780       -1.10500       -1.41610
H         -0.85410        0.90380       -3.73190
H         -2.20860       -0.25860       -3.45760
H         -0.54880       -0.87750       -3.81190
H          2.38620       -2.45580        0.44200
H          0.91340       -2.57460       -0.63070
H          1.15960       -3.81630        2.15160
H          1.30640       -4.65300        0.55820
H         -0.26560       -3.90860        1.03080
H         -1.27550       -0.17960        2.14990
H         -2.27880        1.68180        3.45730
H         -1.55230        4.02450        3.06750
H          0.15550        4.52160        1.34440
H          1.14220        2.70520        0.03110
H          3.30080       -0.92680       -2.68310
H          3.45900        2.09030       -2.23750
H          3.37930        1.15590       -3.86350
H          4.94210        1.74910        1.86350
H          6.59410        2.07660        2.17870
H          5.93950        0.68850        3.07160
H          8.32020       -0.10470        1.51830
H          8.03200        1.31920        0.41530
H          7.82900       -1.64410       -0.16650
H          8.55000       -0.35260       -1.22680
H          6.84930       -2.01420       -2.42000
H          5.87710       -0.67450       -3.08720
H          5.14840       -1.92580       -1.93720
