29

P          1.02970        0.09550       -0.00210
C         -0.15600        0.17050       -1.38800
C          0.74290       -1.66720        0.37640
C          0.15650        1.34010        1.00360
Cu         3.48970        0.09550       -0.00210
Br         3.48970       -2.03350       -1.47700
C          3.48970        1.86280        1.22230
C          2.99340        3.02510        0.80740
O          5.53970        0.09550       -0.00210
C          6.30700        1.01180        0.56780
C          7.64030        0.68830        0.36630
C          7.64280       -0.46860       -0.36140
C          6.32200       -0.80500       -0.56840
H         -1.19450       -0.06100       -1.08640
H          0.17190       -0.56000       -2.16140
H         -0.10380        1.17840       -1.85270
H         -0.34790       -1.84470        0.48130
H          1.23850       -1.93370        1.33080
H          1.08970       -2.33040       -0.43290
H         -0.93270        1.09580        0.98860
H          0.27780        2.35600        0.58370
H          0.48420        1.29060        2.05860
H          3.90390        1.78870        2.22290
H          2.56330        3.12140       -0.18180
H          3.00970        3.88310        1.47370
H          5.97600        1.88460        1.09000
H          8.49510        1.28020        0.68720
H          8.50590       -1.01750       -0.71210
H          6.01880       -1.69120       -1.10460
