46

P          0.94170        0.05830        0.05660
C         -0.02930       -1.49730       -0.12610
C         -1.41970       -1.54040        0.04390
C         -2.08920       -2.77150        0.14310
C         -1.38740       -3.97720        0.06220
C         -0.01120       -3.96150       -0.15510
C          0.66860       -2.73350       -0.24960
C          0.35070        0.22290        1.77210
C          0.70970       -0.69010        2.79540
C          0.16370       -0.55700        4.08450
C         -0.74210        0.47070        4.36110
C         -1.08920        1.37880        3.36170
C         -0.54910        1.25610        2.08060
C          0.37190        1.16280       -1.30990
C         -0.16440        0.81900       -2.58930
C         -0.24360       -0.56520       -3.15160
C         -0.63290        1.84260       -3.44390
C         -0.56590        3.18390       -3.07730
C         -0.03970        3.53280       -1.84330
C          0.41620        2.53940       -0.97380
Cu         3.40170        0.05830        0.05660
Br         3.12330       -0.72990       -2.27380
C          3.58140        0.76590        2.07780
C          2.79010        1.43130        2.95820
C          5.55170        0.05830        0.05660
O          6.76980        0.05830        0.05660
H         -1.97560       -0.62590        0.16080
H         -3.15480       -2.79350        0.32000
H         -1.90980       -4.92270        0.18070
H          0.52510       -4.90630       -0.21260
H          1.74570       -2.76860       -0.36850
H          1.40350       -1.50040        2.60720
H          0.42910       -1.25270        4.87250
H         -1.18110        0.56520        5.34750
H         -1.78890        2.17630        3.57270
H         -0.84960        1.96580        1.32950
H          0.24830       -1.32040       -2.53370
H          0.30530       -0.56380       -4.11610
H         -1.29940       -0.85550       -3.33770
H         -1.04410        1.60160       -4.41700
H         -0.91640        3.95460       -3.75500
H          0.00900        4.57800       -1.55750
H          0.79700        2.86490       -0.01340
H          4.57190        0.61280        2.45330
H          1.82260        1.85330        2.77860
H          3.22310        1.68160        3.93030
