59

P          0.90930       -0.02690       -0.03240
C         -0.20850        0.11170        1.43370
C         -1.37710        0.90670        1.45380
C         -2.16200        0.99870        2.61150
C         -1.80530        0.30180        3.76620
C         -0.66030       -0.48990        3.76860
C          0.12930       -0.58080        2.61920
C          0.46610        1.50920       -0.91880
C          0.40310        2.74340       -0.23900
C          0.12670        3.92750       -0.93150
C         -0.05070        3.90680       -2.31490
C          0.01680        2.69530       -3.00760
C          0.24940        1.49770       -2.31430
C          0.16780       -1.65430       -0.56190
C          0.58150       -2.27430       -1.77970
C          1.74710       -1.80460       -2.60670
C         -0.13460       -3.37620       -2.29070
C         -1.25210       -3.88060       -1.63320
C         -1.66270       -3.30970       -0.44330
C         -0.97490       -2.22490        0.08600
Cu         3.36930       -0.02690       -0.03240
Br         3.20440       -2.00990        1.46950
C          3.39360        1.63730       -1.35560
C          4.38340        2.52460       -1.47830
C          5.51930       -0.02690       -0.03240
N          6.28080       -0.46100        1.01770
C          5.91800       -0.80570        2.38810
C          7.57010       -0.34540        0.65500
C          7.62210        0.13900       -0.61610
N          6.36570        0.33190       -1.05950
C          6.13810        0.60540       -2.48430
H         -1.69940        1.45690        0.58490
H         -3.05240        1.61370        2.61580
H         -2.41410        0.37330        4.65930
H         -0.38180       -1.03210        4.66480
H          1.00290       -1.19820        2.67480
H          0.56370        2.79190        0.82900
H          0.06700        4.86730       -0.39640
H         -0.23270        4.83100       -2.85100
H         -0.09760        2.69100       -4.08450
H          0.31990        0.57990       -2.87870
H          2.28680       -0.94750       -2.16820
H          1.39190       -1.51690       -3.61920
H          2.47130       -2.64000       -2.71120
H          0.15860       -3.83650       -3.22580
H         -1.81160       -4.70760       -2.05060
H         -2.54400       -3.68670        0.06390
H         -1.43160       -1.84540        0.97990
H          2.56250        1.92930       -1.93270
H          5.26850        2.48090       -0.87080
H          4.27300        3.36330       -2.15950
H          4.89290       -0.48350        2.63020
H          6.53800       -0.20090        3.08610
H          6.11320       -1.87950        2.58900
H          8.41980       -0.58520        1.28220
H          8.52210        0.29840       -1.19750
H          6.83070       -0.01630       -3.09220
H          6.38780        1.65570       -2.74290
H          5.11780        0.30320       -2.79520
