84

P          0.91690        0.03010       -0.04680
O          0.47680        0.66550       -1.58530
C         -0.85010        0.35320       -1.96530
C         -1.12690        1.00450       -3.31110
O          0.81290       -1.58450        0.48390
C          1.38340       -2.36430       -0.55260
C          0.97840       -3.82480       -0.42060
C         -0.53180        0.60630        0.90450
C         -1.37880       -0.17510        1.69850
C         -2.49730        0.42710        2.32900
C         -2.75920        1.79110        2.16240
C         -1.90910        2.57370        1.37360
C         -0.80350        1.98500        0.77990
Cu         3.37690        0.03010       -0.04680
Br         3.37690       -0.93920        2.35500
C          3.37690        0.83470       -2.04050
C          4.21880        0.95150       -3.06150
P          5.83690        0.03010       -0.04680
C          6.87180       -0.76710       -1.50330
C          8.41420       -1.02750       -1.51830
C          8.90070       -2.36650       -0.91550
C          8.22470       -3.56960       -1.57230
C          6.71510       -3.44650       -1.41350
C          6.20180       -2.11090       -2.03050
C          6.73390        1.67110       -0.12210
C          6.43490        2.72160       -1.20520
C          5.11130        3.45550       -0.96830
C          5.01950        4.04570        0.44520
C          5.26260        2.95980        1.50130
C          6.64840        2.33710        1.27490
C          6.38590       -1.23070        1.25020
C          7.60050       -1.24970        2.05940
C          8.83620       -0.39240        1.88630
C          7.75600       -2.22820        3.06860
C          6.79750       -3.19080        3.29140
C          5.70980       -3.27550        2.44450
C          5.54580       -2.33510        1.42530
H         -1.60690        0.80790       -1.29820
H         -1.00840       -0.74200       -2.03460
H         -0.96490        2.10420       -3.24090
H         -2.18300        0.82940       -3.60740
H         -0.45180        0.58970       -4.08610
H          2.49150       -2.30150       -0.49800
H          1.03990       -2.05570       -1.57100
H          1.28470       -4.22680        0.56520
H          1.48260       -4.41440       -1.21970
H         -0.11940       -3.93570       -0.54890
H         -1.21380       -1.23010        1.84660
H         -3.15460       -0.16620        2.94080
H         -3.63480        2.24210        2.61890
H         -2.12080        3.62570        1.23600
H         -0.16590        2.61780        0.17260
H          2.43810        1.25570       -2.32190
H          5.18990        0.59350       -3.10350
H          3.87700        1.43080       -3.97620
H          6.79960       -0.03330       -2.28260
H          8.98580       -0.16820       -1.15070
H          8.68840       -1.12310       -2.59900
H          8.71360       -2.43020        0.15910
H          9.99780       -2.45690       -1.07490
H          8.58500       -4.51250       -1.09560
H          8.48240       -3.62440       -2.65200
H          6.49420       -3.56080       -0.35040
H          6.23150       -4.32140       -1.90420
H          5.09070       -2.06180       -1.96960
H          6.45090       -2.21150       -3.10800
H          7.78990        1.43190       -0.27930
H          6.50420        2.28130       -2.21680
H          7.23950        3.49110       -1.14300
H          4.27660        2.76820       -1.04920
H          4.98950        4.25510       -1.72460
H          4.01070        4.48920        0.58930
H          5.77790        4.84850        0.56390
H          4.47870        2.17140        1.44240
H          5.21520        3.41550        2.51270
H          6.87440        1.61210        2.07670
H          7.40360        3.15410        1.34960
H          8.81830        0.28550        1.04190
H          9.70320       -1.07090        1.67660
H          9.08890        0.15600        2.80980
H          8.65120       -2.23980        3.68240
H          6.91710       -3.90500        4.09870
H          4.96760       -4.04650        2.59290
H          4.68670       -2.45410        0.77460
