57

P          1.08150        0.03950        0.04240
C          0.24990       -1.70670        0.05480
C         -1.30280       -1.80310        0.09050
C          0.77200       -2.46360       -1.19990
C          0.73120       -2.56520        1.24690
C          0.55910        0.53430        1.74280
C          1.44480        0.98000        2.74250
C          0.98960        1.27980        4.03410
C         -0.36770        1.19220        4.33890
C         -1.27340        0.86400        3.33680
C         -0.81480        0.56730        2.05330
C          0.39290        1.00080       -1.36050
C         -0.47380        0.47520       -2.34900
C         -0.87740        1.24540       -3.44110
C         -0.43740        2.55800       -3.57380
C          0.37790        3.11770       -2.58960
C          0.77370        2.35450       -1.48020
Cu         3.54150        0.03950        0.04240
Br         3.48270       -1.18100        2.26270
C          3.68860        1.11890       -1.81170
C          2.91430        1.20000       -2.88920
N          5.64150        0.03950        0.04240
C          6.32860       -0.25560        1.20200
C          7.72420       -0.15740        1.30160
C          8.47620        0.21730        0.19440
C          9.96340        0.38960        0.27070
C          7.81390        0.43970       -1.00170
C          6.42310        0.34280       -1.06020
H         -1.83310       -1.14690       -0.61470
H         -1.71550       -1.65710        1.10570
H         -1.61850       -2.84580       -0.13390
H          0.50790       -2.02760       -2.17030
H          0.39800       -3.51110       -1.21780
H          1.88260       -2.50640       -1.18670
H          0.49460       -2.09260        2.22250
H          1.80710       -2.78400        1.16990
H          0.24770       -3.56710        1.24080
H          2.49130        1.11210        2.54370
H          1.69020        1.58340        4.80090
H         -0.72270        1.41360        5.33720
H         -2.33510        0.84030        3.54910
H         -1.55580        0.37440        1.30390
H         -0.84570       -0.52130       -2.34090
H         -1.51990        0.81080       -4.19790
H         -0.73000        3.13740       -4.44060
H          0.72330        4.13680       -2.70140
H          1.43330        2.80240       -0.74830
H          4.57140        1.71080       -1.95100
H          2.03820        0.60680       -3.03100
H          3.22580        1.83170       -3.71750
H          5.85320       -0.49200        2.12120
H          8.20590       -0.34600        2.25230
H         10.34510        0.18680        1.29250
H         10.21940        1.43940        0.00830
H         10.46330       -0.29300       -0.44610
H          8.37150        0.69380       -1.89580
H          6.05280        0.47040       -2.05110
