60

P          1.07280       -0.02940       -0.06200
C         -0.01580        0.98760       -1.11730
C          0.78620       -1.60160       -0.94040
C          0.11910        0.29980        1.45690
Cu         3.53280       -0.02940       -0.06200
Br         3.52260       -0.29290       -2.53250
C          3.32300        0.25290        1.97890
C          3.17520        1.47610        2.49960
P          5.99280       -0.02940       -0.06200
C          6.92750       -0.31370        1.50470
C          8.02130       -1.19220        1.65950
C          8.55010       -1.45320        2.94420
C          7.97360       -0.88250        4.08630
C          6.88330       -0.04130        3.95220
C          6.38190        0.23050        2.68150
C          6.40450       -1.19400       -1.38740
C          6.65010       -0.77420       -2.71040
C          6.96440       -1.70550       -3.70770
C          7.05600       -3.06370       -3.38990
C          6.82900       -3.48060       -2.08050
C          6.49270       -2.56490       -1.08680
C          6.54910        1.70870       -0.55000
C          6.27020        2.91930        0.38700
C          7.28920        3.13170        1.53840
C          8.73660        3.14040        1.03750
C          9.03660        1.87770        0.23390
C          8.05830        1.76130       -0.95510
H         -1.07540        0.67350       -1.08770
H          0.35760        0.92620       -2.16370
H          0.07910        2.05020       -0.80400
H         -0.30870       -1.76270       -1.04060
H          1.20970       -2.43940       -0.35200
H          1.21630       -1.59820       -1.95690
H         -0.96450        0.16030        1.22810
H          0.26690        1.34020        1.80440
H          0.37880       -0.43120        2.24520
H          3.28530       -0.61250        2.63010
H          3.19760        2.35860        1.86990
H          3.05260        1.59970        3.57240
H          8.46610       -1.67370        0.80300
H          9.39650       -2.11170        3.07410
H          8.35810       -1.09350        5.07880
H          6.41440        0.40030        4.82520
H          5.55520        0.88980        2.63510
H          6.57790        0.26860       -2.99210
H          7.13020       -1.37450       -4.72360
H          7.29740       -3.78540       -4.16160
H          6.90480       -4.54130       -1.83610
H          6.31990       -2.90880       -0.07280
H          5.95760        1.88380       -1.47440
H          5.22830        2.90320        0.75610
H          6.37970        3.82890       -0.24540
H          7.22480        2.37340        2.30740
H          7.07540        4.08980        2.05790
H          9.43450        3.20800        1.90280
H          8.89900        4.02660        0.38920
H          8.99140        0.99580        0.88590
H         10.08060        1.92800       -0.15000
H          8.34440        0.89530       -1.58090
H          8.21940        2.67160       -1.57880
