94

P          0.97820        0.06430       -0.07340
C          0.46250       -1.43190        0.93880
C         -0.24470       -2.45240        0.34480
C         -0.61320       -3.64560        0.95110
C         -0.28730       -3.84490        2.27710
C          0.35510       -2.81820        2.97230
C          0.71050       -1.62040        2.31510
C          0.42960        1.72770        0.39330
C         -0.49750        1.84990        1.45340
C         -0.94450        3.10410        1.87520
C         -0.45980        4.25820        1.26040
C          0.45940        4.15270        0.20900
C          0.89440        2.89210       -0.23470
C          0.05080       -0.23650       -1.81490
C          0.41900       -1.46960       -2.79400
C         -0.44040       -2.77150       -2.83380
C         -1.95940       -2.49850       -2.74700
C         -2.38500       -1.26580       -1.88450
C         -1.47900       -0.01290       -2.05170
Cu         3.43820        0.06430       -0.07340
Br         3.43820        0.04380        2.51650
C          3.43820        0.08140       -2.22330
C          4.32110        0.86870       -2.83730
C          5.58820        0.06430       -0.07340
N          6.34020        1.26660       -0.10620
C          6.01090        2.75410       -0.13120
C          4.78810        3.26650        0.40740
C          3.94100        2.46570        1.19970
C          4.40740        4.60510        0.41370
C          5.20670        5.56910       -0.10930
C          4.73440        6.99400       -0.04930
C          6.44930        5.18900       -0.62050
C          6.87220        3.81460       -0.63470
C          8.25290        3.61030       -1.18650
C          7.60680        0.80080       -0.06680
C          7.62050       -0.56670       -0.01600
N          6.38380       -1.09520       -0.02760
C          6.07340       -2.59740       -0.01550
C          7.06670       -3.69610        0.00830
C          8.58960       -3.70050        0.03290
C          6.63310       -5.06500        0.01730
C          5.29760       -5.42600        0.00440
C          4.79710       -6.84080        0.00050
C          4.36870       -4.44430        0.00510
C          4.72120       -3.09950        0.00230
C          3.55310       -2.28140        0.07810
H         -0.52000       -2.29790       -0.59570
H         -1.14970       -4.40130        0.38540
H         -0.56100       -4.77440        2.76070
H          0.57350       -2.95340        4.02090
H          1.15500       -0.86320        2.90970
H         -0.88300        0.96790        1.94760
H         -1.66220        3.18300        2.68450
H         -0.79790        5.23190        1.60080
H          0.83460        5.05660       -0.25230
H          1.61140        2.83400       -1.04240
H          0.51480        0.63490       -2.32670
H          1.44320       -1.84620       -2.70510
H          0.28740       -1.06260       -3.82330
H         -0.10520       -3.50430       -2.07250
H         -0.22060       -3.36940       -3.74800
H         -2.47140       -3.41460       -2.36000
H         -2.32540       -2.36010       -3.78370
H         -2.45090       -1.51250       -0.81350
H         -3.42600       -1.01340       -2.19340
H         -1.85640        0.85230       -1.47370
H         -1.58930        0.26200       -3.13020
H          2.78040       -0.42670       -2.87050
H          5.02210        1.45570       -2.26790
H          4.35180        0.94720       -3.91750
H          4.71620        1.94750        1.78990
H          3.23950        1.95640        0.54150
H          3.36540        3.00130        1.98630
H          3.46650        4.89770        0.87250
H          3.71850        7.06600        0.40660
H          4.66820        7.41480       -1.06920
H          5.41650        7.59630        0.58290
H          7.09190        5.97050       -1.00640
H          8.69590        4.54660       -1.58450
H          8.24170        2.86740       -2.01540
H          8.95180        3.33140       -0.37560
H          8.50110        1.37510       -0.03230
H          8.55390       -1.03070        0.03550
H          9.19920       -2.81730       -0.00670
H          8.95930       -4.29850       -0.82750
H          8.91580       -4.20960        0.96730
H          7.35140       -5.87840        0.03250
H          5.62020       -7.57830        0.01740
H          4.17960       -7.00180       -0.91210
H          4.14170       -7.00020        0.88650
H          3.32170       -4.74790        0.01160
H          2.64210       -2.77290        0.46820
H          3.34250       -1.89260       -0.91590
H          3.85450       -1.66320        0.88150
