63

P          1.27500       -0.00000        0.00000
N          0.29620       -1.07140        1.03140
C         -1.14460       -0.91470        0.94250
C         -1.48300        0.09540       -0.13730
C         -3.01470        0.18770       -0.25050
C         -0.87190        1.48310        0.30500
N          0.57450        1.46180        0.65650
N          0.61930       -0.67330       -1.47340
C         -0.84980       -0.40680       -1.49770
Cu         3.73500        0.00030       -0.00050
Br         3.73520       -2.47310       -0.76880
C          3.73480        2.05350        0.63730
C          3.30900        2.44200        1.83730
P          6.19500        0.00070       -0.00090
N          7.22970        1.02180       -1.09330
C          6.70010        2.39080       -1.14590
C          8.71110        1.07480       -1.17540
C          9.39700       -0.24790       -1.02740
N          8.97250       -0.96130        0.18260
C          8.95120       -0.43210        1.57070
C          8.10180        0.86180        1.80840
N          6.63730        0.81720        1.51560
C          5.91850        0.17620        2.62290
N          6.50580       -1.60150       -0.74310
C          6.37510       -1.78260       -2.19630
C          7.23330       -2.61070        0.05040
C          8.73310       -2.39490       -0.00660
H          0.61950       -0.99830        2.02340
H         -1.55080       -0.59080        1.92910
H         -1.58280       -1.91260        0.71800
H         -3.45850        0.49210        0.72480
H         -3.44390       -0.80670       -0.51020
H         -3.31490        0.92000       -1.02400
H         -1.43250        1.86130        1.19140
H         -1.03640        2.21620       -0.51080
H          0.68560        1.41570        1.69610
H          0.80040       -1.70350       -1.45640
H         -1.36750       -1.34160       -1.81460
H         -1.06000        0.35250       -2.27870
H          4.04870        2.81980       -0.05620
H          2.95210        1.72290        2.56350
H          3.30570        3.49960        2.08680
H          5.63960        2.37370       -1.44930
H          7.21970        2.99790       -1.91990
H          6.82450        2.90200       -0.16560
H          9.16900        1.83010       -0.52210
H          8.98130        1.45680       -2.18890
H         10.49710       -0.13960       -1.07230
H          9.11580       -0.81500       -1.93770
H         10.00080       -0.23400        1.87660
H          8.55670       -1.20530        2.24840
H          8.53160        1.75270        1.34700
H          8.24900        1.12510        2.87840
H          6.10940        0.72740        3.56850
H          6.22530       -0.88190        2.74700
H          4.82660        0.21250        2.44660
H          5.59970       -1.09970       -2.60060
H          6.04620       -2.82540       -2.40440
H          7.32100       -1.63350       -2.73760
H          6.90430       -2.53190        1.10430
H          7.00450       -3.64430       -0.29150
H          9.11900       -2.74050       -0.99380
H          9.26850       -3.00210        0.75240
