45

P          1.27500        0.00000        0.00000
O          0.29420        1.27380        0.63090
C         -1.08330        1.05260        0.55130
C         -1.39660       -0.25780       -0.14050
C         -2.92360       -0.42450       -0.22580
C         -0.72480       -0.18260       -1.56010
O          0.67290        0.15040       -1.58050
O          0.66400       -1.17860        1.05040
C         -0.71800       -1.38970        0.72040
Cu         3.73500        0.00030       -0.00050
Br         3.72670       -2.33820       -0.81940
C          3.59440        1.88200        0.84960
C          3.83000        2.02690        2.15570
P          6.19500        0.00070       -0.00090
N          7.44490       -1.18940       -0.41190
C          7.33680       -1.59680       -1.82630
C          8.80950       -1.02360        0.04660
O          6.97300        1.35500       -0.70060
C          6.43760        2.54650       -0.20970
O          6.35530       -0.28590        1.67530
C          5.76980       -1.51440        2.02880
H         -1.53740        1.90880       -0.00160
H         -1.49730        1.06300        1.58520
H         -3.37050        0.42630       -0.78830
H         -3.36880       -0.41100        0.79600
H         -3.19230       -1.37260       -0.72470
H         -1.25090        0.61130       -2.13700
H         -0.88040       -1.14510       -2.08640
H         -1.26210       -1.45230        1.69080
H         -0.83290       -2.37490        0.21090
H          3.31160        2.73720        0.24960
H          4.09950        1.16890        2.75880
H          3.74460        3.00110        2.62780
H          6.27820       -1.61840       -2.16870
H          7.71730       -2.63460       -1.95550
H          7.90000       -0.90630       -2.48660
H          8.82170       -0.77680        1.12910
H          9.34360       -0.26040       -0.54620
H          9.33240       -2.00380       -0.05700
H          7.05140        3.38090       -0.59240
H          6.48100        2.58940        0.90160
H          5.43130        2.71550       -0.63690
H          6.31540       -1.90430        2.91330
H          5.87170       -2.30430        1.25680
H          4.70890       -1.36180        2.30820
