69

C          0.90100       -0.64300       -0.00200
N         -0.46790       -0.94350       -0.06060
C         -1.19430       -2.23370       -0.27000
C         -0.91990       -3.16520        0.90600
C         -1.76840       -2.76830        2.13680
C         -3.24590       -3.06430        1.84880
C         -3.74000       -2.18800        0.69440
C         -2.77700       -2.24330       -0.53050
C         -1.09080        0.23180        0.15560
C         -0.15610        1.22310        0.29390
N          1.08070        0.69910        0.15940
C          2.39130        1.39170       -0.01770
C          2.66230        1.60880       -1.53440
C          1.69910        2.63860       -2.14100
C          1.97280        4.00130       -1.50340
C          1.78870        3.94330        0.02050
C          2.57920        2.77590        0.66800
Cu         2.65840       -1.88140       -0.01350
Br         2.60540       -1.80890       -2.50210
C          2.75840       -1.91120        2.08860
C          1.79760       -1.40760        2.87990
C          4.41590       -3.11990       -0.02500
N          5.56840       -3.00010        0.68730
C          5.97550       -1.91870        1.57750
C          6.35360       -4.04340        0.30410
C          7.76200       -4.32170        0.74560
C          5.65230       -4.82300       -0.58850
C          6.10690       -6.11510       -1.21670
N          4.45680       -4.24200       -0.80370
C          3.36730       -4.84060       -1.58890
H         -0.76510       -2.63390       -1.21060
H          0.15990       -3.13570        1.13540
H         -1.18700       -4.20520        0.61750
H         -1.63260       -1.69370        2.40020
H         -1.45440       -3.38290        3.00250
H         -3.87820       -2.88780        2.75000
H         -3.34240       -4.14330        1.59220
H         -3.87180       -1.15130        1.05870
H         -4.76020       -2.55330        0.40060
H         -3.11680       -1.51530       -1.30180
H         -2.98460       -3.24760       -0.96050
H         -2.16020        0.38190        0.21040
H         -0.41880        2.24450        0.44320
H          3.17750        0.71190        0.38330
H          2.55210        0.68170       -2.09350
H          3.70680        1.96140       -1.69970
H          0.64460        2.32480       -1.98780
H          1.86360        2.71060       -3.23820
H          1.29300        4.76730       -1.93750
H          3.01750        4.29260       -1.74560
H          0.71980        3.87620        0.23060
H          2.11040        4.90810        0.46530
H          2.38460        2.70850        1.75670
H          3.65600        3.03870        0.54250
H          3.51740       -2.54210        2.56570
H          0.95660       -0.85840        2.48860
H          1.83600       -1.56100        3.95090
H          5.18890       -1.14570        1.66010
H          6.87800       -1.42610        1.15320
H          6.22470       -2.32550        2.57900
H          8.14410       -3.55060        1.44050
H          8.42000       -4.33980       -0.15170
H          7.81240       -5.31460        1.23890
H          7.12950       -6.39560       -0.89630
H          6.09630       -6.02250       -2.32300
H          5.41990       -6.93450       -0.91420
H          3.63670       -5.84260       -1.97330
H          3.12390       -4.28060       -2.49130
H          2.47040       -4.96330       -0.94310
