105

C          0.90100       -0.64300       -0.00200
N          0.87510        0.76370       -0.60900
C          1.43610        2.14270       -1.37320
C          0.87480        2.10160       -2.84230
C          1.07590        3.44710       -0.50930
C          2.86690        2.83300       -1.84690
C         -0.41740        1.08430       -0.39480
C         -1.11830        0.18470        0.26370
N         -0.43620       -0.93200        0.53180
C         -1.40570       -1.93450        1.26830
C         -2.91640       -1.89070        0.77250
C         -1.13220       -3.32580        0.95110
C         -1.37460       -1.83650        2.82350
Cu         2.65840       -1.88140       -0.01350
Br         3.85430       -0.19890        1.55080
C          1.66570       -3.27810       -1.31200
C          2.20210       -4.31640       -2.07890
C          4.41590       -3.11990       -0.02500
N          5.71470       -2.66720       -0.11590
C          6.46220       -1.39540       -0.22200
C          7.73980       -1.31850        0.48300
C          8.30870       -2.42950        1.40160
C          9.63470       -2.99540        0.85550
C          8.40030       -2.00670        2.87000
C          8.54750       -0.16840        0.36590
C          8.14200        0.92980       -0.35120
C          6.94420        0.90780       -1.00330
C          6.09150       -0.22670       -1.01930
C          4.84370        0.08520       -1.86620
C          4.25220       -0.78390       -2.97510
C          3.79360        0.57700       -1.01600
C          6.41850       -3.80400       -0.32740
C          5.69190       -4.92860       -0.20600
N          4.41450       -4.65670        0.03220
C          3.46760       -5.97950        0.26490
C          3.84500       -7.40220        0.55340
C          5.15820       -7.98650        0.97520
C          5.00820       -8.64640        2.39170
C          5.57090       -9.00190       -0.10220
C          2.87990       -8.50800        0.56090
C          1.56330       -8.38600        0.45830
C          1.14660       -7.16820        0.46970
C          2.01250       -6.01740        0.38080
C          1.21200       -4.91040        0.48680
C          2.30520       -3.65370        0.70950
C          0.00300       -5.19520       -0.75410
H         -0.21470        2.09160       -2.95600
H          1.29220        1.16880       -3.29980
H          1.24250        2.91560       -3.53120
H          0.02910        3.74550       -0.37790
H          1.50980        4.42240       -0.87120
H          1.53230        3.31890        0.49930
H          3.26260        2.18190       -2.66710
H          3.40910        3.08520       -0.88640
H          3.86130        3.27000       -2.08350
H         -0.93120        1.99140       -0.67750
H         -2.13460        0.41070        0.50550
H         -2.97000       -2.00170       -0.33820
H         -3.49210       -1.00830        1.08820
H         -3.53540       -2.72710        1.18530
H         -1.03960       -3.24470       -0.12380
H         -1.90160       -4.10440        1.19560
H         -0.36490       -3.58750        1.63920
H         -1.85130       -0.92160        3.20810
H         -0.32960       -1.92210        3.19530
H         -1.92420       -2.70590        3.27440
H          0.68220       -2.89350       -1.52250
H          3.23350       -4.62920       -2.01700
H          1.63420       -4.83010       -2.84270
H          7.66590       -3.30240        1.51150
H         10.48970       -2.30930        1.00470
H          9.55700       -3.22940       -0.22920
H          9.84870       -3.95810        1.37130
H          8.74630       -0.96400        3.00170
H          9.07600       -2.69810        3.41810
H          7.39230       -2.10380        3.33500
H          9.51050       -0.10260        0.85180
H          8.75230        1.82380       -0.41060
H          6.68660        1.83580       -1.50800
H          5.01990        1.03130       -2.40940
H          4.57520       -1.82660       -2.89540
H          4.49580       -0.33030       -3.95320
H          3.12540       -0.73830       -2.96790
H          3.13980       -0.23050       -0.86160
H          3.22480        1.15980       -0.28070
H          4.39910        1.27250       -0.37100
H          7.46550       -3.84990       -0.56620
H          6.12710       -5.89470       -0.32820
H          5.93350       -7.23810        1.12870
H          4.18980       -9.39420        2.50080
H          4.78930       -7.87480        3.16420
H          5.93010       -9.18740        2.66240
H          4.87080       -9.85660       -0.21550
H          6.54360       -9.44320        0.14430
H          5.58140       -8.48330       -1.08380
H          3.09320       -9.54440        0.72390
H          0.84300       -9.20090        0.48320
H          0.05920       -7.13280        0.54960
H          0.78070       -5.10920        1.48980
H          3.31990       -2.55680       -1.34410
H          2.34880       -3.16990        1.72680
H          1.45220       -2.98080        0.97390
H          0.34010       -5.93600       -1.52050
H         -0.41710       -4.50820       -1.52910
H         -0.96580       -5.61140       -0.41020
