47

C          1.02400       -0.65300       -0.05500
N          1.07900        0.62120        0.04160
C          2.29820        1.38960        0.13170
C         -0.24250        1.21260        0.12690
C         -1.18940        0.02470       -0.11790
N         -0.30810       -1.11150       -0.10290
C         -0.74690       -2.47260       -0.30030
Cu         2.78020       -1.86970       -0.29550
Br         3.34780       -0.61670       -2.49000
C          2.30900       -2.90990        1.52620
C          1.55580       -4.01100        1.57720
C          4.53640       -3.08650       -0.53600
N          4.95430       -4.14090        0.15140
C          4.26780       -4.88200        1.20070
C          4.90020       -6.18680        1.70200
C          6.20000       -4.66220       -0.36650
C          6.35040       -3.98920       -1.69820
N          5.50680       -2.82880       -1.57460
C          6.04900       -1.48650       -1.81770
C          7.53400       -1.28050       -1.49880
H          3.19410        0.73250        0.10120
H          2.31070        1.94390        1.09070
H          2.34980        2.11380       -0.70850
H         -0.39900        2.00270       -0.63860
H         -0.37090        1.62110        1.14680
H         -1.64770        0.08390       -1.12920
H         -1.97770       -0.03760        0.66490
H         -1.84400       -2.50220       -0.46100
H         -0.54710       -3.06060        0.60540
H         -0.24170       -2.91000       -1.18600
H          2.52310       -2.40760        2.46430
H          1.22750       -4.49570        0.66410
H          1.26950       -4.43140        2.53640
H          3.34500       -5.26310        0.73050
H          4.16680       -4.26030        2.10730
H          5.04270       -6.92450        0.88520
H          4.18670       -6.65780        2.41710
H          5.85080       -5.99270        2.23410
H          6.20480       -5.75610       -0.55590
H          7.00400       -4.38670        0.35160
H          5.89460       -4.61910       -2.49410
H          7.41630       -3.84170       -1.94930
H          5.55090       -0.75980       -1.14040
H          5.90880       -1.22750       -2.88840
H          7.73300       -1.50240       -0.42970
H          7.78480       -0.21390       -1.68860
H          8.19950       -1.87440       -2.15400
