78

P          1.27500        0.00000        0.00000
N          0.32650        1.54170       -0.04460
C          0.70110        2.57510        1.02190
C          0.19470        3.98250        0.65500
C          0.36660        2.27850        2.49350
C         -1.11710        1.39490       -0.23120
C         -1.53440       -0.04440       -0.05650
C         -3.07650       -0.10680       -0.10270
C         -0.96120       -0.88130       -1.23360
N          0.52190       -0.87820       -1.37860
C          1.04030       -2.28640       -1.54230
C          0.76970       -3.21120       -0.34020
C          0.48220       -3.03860       -2.75870
N          0.47060       -0.34890        1.59080
C          1.02720       -1.28080        2.63580
C          2.47590       -0.96640        2.98600
C          0.22120       -1.28620        3.95470
C         -0.99440       -0.56590        1.33930
Cu         3.73500        0.00030       -0.00050
Br         3.73540       -2.55810        0.40280
C          3.73470        2.12410       -0.33520
C          4.68240        2.97220       -0.76950
C          5.88500        0.00060       -0.00090
N          6.68470        0.96920        0.35410
C          6.30970        1.89920        1.44030
C          7.25220        3.10720        1.56120
C          8.06050        0.52860        0.27000
C          7.97810       -0.96850        0.08470
N          6.59810       -1.20360       -0.26590
C          6.30880       -1.96680       -1.49010
C          5.40250       -1.22610       -2.49020
H          1.77660        2.68070        1.13530
H         -0.90580        4.07050        0.74690
H          0.51320        4.26340       -0.36900
H          0.63390        4.72980        1.35480
H         -0.70500        2.08190        2.66270
H          0.67440        3.13880        3.12980
H          1.00120        1.46970        2.89050
H         -1.38370        1.76420       -1.24710
H         -1.67610        2.02620        0.49100
H         -3.44670        0.26500       -1.08450
H         -3.52360        0.53630        0.68920
H         -3.43860       -1.14450        0.04260
H         -1.38610       -0.50750       -2.18970
H         -1.38930       -1.88980       -1.11190
H          2.13110       -2.21400       -1.71740
H         -0.29190       -3.37620       -0.07560
H          1.23460       -2.75810        0.48680
H          1.25550       -4.20370       -0.45340
H         -0.60020       -3.26150       -2.64910
H          0.99440       -4.02870       -2.82970
H          0.66620       -2.48530       -3.69510
H          0.92340       -2.32880        2.33220
H          2.55880       -0.06000        3.61240
H          3.08010       -0.76150        2.09940
H          2.91740       -1.82640        3.54180
H          0.31090       -0.31960        4.48890
H          0.62140       -2.08770        4.62020
H         -0.85100       -1.52190        3.80530
H         -1.55020       -0.01660        2.13920
H         -1.27820       -1.63470        1.43130
H          2.78730        2.57850       -0.48410
H          5.71410        2.72190       -0.92710
H          4.39750        3.99510       -1.01300
H          6.35340        1.34980        2.40630
H          5.28110        2.25180        1.43510
H          8.26900        2.79470        1.87580
H          6.87620        3.79760        2.34610
H          7.32550        3.65930        0.60330
H          8.68060        0.75910        1.16290
H          8.50030        1.01590       -0.62650
H          8.16730       -1.49530        1.04340
H          8.72740       -1.29850       -0.66990
H          5.87130       -2.94920       -1.23310
H          7.24940       -2.18410       -2.04270
H          4.40220       -1.02440       -2.05800
H          5.26440       -1.84320       -3.40240
H          5.86690       -0.26100       -2.78980
