65

P          0.97540        0.04190        0.08740
C          0.15140        0.99820       -1.34130
C         -1.35990        0.97090       -1.62740
C          0.55400        2.48070       -1.35550
C          0.59570       -1.77240       -0.17030
C         -0.90630       -2.13680       -0.16800
C          1.23750       -2.35130       -1.42500
C          0.49200        0.90390        1.68840
C          0.93620        2.36200        1.83410
C         -1.01870        0.83350        1.99520
Cu         3.43540        0.04190        0.08740
Br         3.43540       -1.36930        2.25920
C          3.43540        1.21330       -1.71540
C          3.37270        0.64700       -2.91720
P          5.89540        0.04190        0.08740
C          7.22060       -1.10500       -0.43870
C          6.28330        1.44730       -1.00440
C          5.83050        2.70870       -0.58020
C          6.09480        3.87090       -1.33270
C          6.83310        3.77310       -2.51770
C          7.29570        2.52990       -2.94660
C          7.02530        1.36440       -2.20320
C          6.38970       -0.12130        1.83230
C          6.31500       -1.30420        2.59030
C          6.59930       -1.28240        3.96270
C          7.02280       -0.10030        4.57500
C          7.18380        1.05640        3.81380
C          6.86890        1.04650        2.45430
H          0.63810        0.53200       -2.22760
H         -1.95160        1.46090       -0.83930
H         -1.76900       -0.00620       -1.86560
H         -1.54240        1.55940       -2.55750
H         -0.14280        3.09810       -0.76670
H          0.49790        2.88120       -2.38900
H          1.56050        2.67130       -0.96460
H          1.02840       -2.29710        0.70670
H         -1.42600       -1.81950       -1.07700
H         -1.44750       -1.76200        0.71170
H         -1.03350       -3.23910       -0.15400
H          0.85230       -1.84940       -2.33560
H          0.98970       -3.43540       -1.49680
H          2.33910       -2.25550       -1.36740
H          1.00500        0.33760        2.49060
H          0.32400        3.05140        1.23640
H          2.01110        2.48460        1.59940
H          0.76140        2.68910        2.88240
H         -1.62230        1.37150        1.24610
H         -1.24330        1.30560        2.97490
H         -1.37650       -0.20240        2.08390
H          3.53010        2.28930       -1.66050
H          3.30010       -0.42830       -3.01880
H          3.39890        1.27190       -3.80560
H          7.05230       -1.35960       -1.50790
H          7.13390       -2.07680        0.08460
H          8.22990       -0.67210       -0.30450
H          5.26040        2.80290        0.33800
H          5.73330        4.82850       -0.98750
H          7.03250        4.66960       -3.08980
H          7.86640        2.47190       -3.86790
H          7.41790        0.44380       -2.59210
H          5.98220       -2.23030        2.14050
H          6.47490       -2.17840        4.55590
H          7.23010       -0.07910        5.63710
H          7.53220        1.96990        4.27960
H          6.98120        1.96240        1.89200
