54

C          0.90100       -0.64300       -0.00200
N         -0.38570       -1.08660        0.07790
C         -0.93840       -2.47620        0.21240
C          0.16140       -3.53850        0.40750
C         -1.88380       -2.53330        1.43200
C         -1.72610       -2.82060       -1.07240
C         -1.15560        0.01920       -0.02380
C         -0.33630        1.11200       -0.10150
N          0.94690        0.70940       -0.10990
C          2.12340        1.62640       -0.16960
C          2.09290        2.55990        1.06630
C          3.44270        0.85390       -0.14740
C          2.04380        2.47240       -1.44760
Cu         2.65840       -1.88140       -0.01350
Br         2.64670       -1.87400       -2.60350
C          2.66820       -1.88760        2.13650
C          1.78610       -1.24840        2.90970
N          4.37500       -3.09110       -0.02470
C          4.43630       -4.20810       -0.79780
C          5.48450       -5.12660       -0.58740
C          6.58000       -4.75370        0.20960
C          7.77110       -5.64600        0.39380
C          6.55020       -3.52700        0.86820
C          5.37870       -2.77720        0.83820
H          0.69970       -3.37670        1.35780
H          0.88020       -3.54410       -0.43650
H         -0.29980       -4.55370        0.47200
H         -1.33600       -2.27520        2.36080
H         -2.32010       -3.55270        1.54630
H         -2.73220       -1.82360        1.32750
H         -1.05250       -2.80700       -1.95210
H         -2.54710       -2.09060       -1.24000
H         -2.17840       -3.83200       -0.99490
H         -2.22910        0.02410        0.00560
H         -0.68620        2.13530       -0.17750
H          2.14470        1.96510        2.00570
H          1.16700        3.16830        1.09100
H          2.95950        3.25250        1.04110
H          3.54680        0.26170        0.78690
H          4.30510        1.55720       -0.18540
H          3.52770        0.18000       -1.01320
H          1.12640        3.09940       -1.45220
H          2.01850        1.81350       -2.34510
H          2.91960        3.15410       -1.52320
H          3.44630       -2.45400        2.63430
H          0.97550       -0.66010        2.50810
H          1.87470       -1.31390        3.98930
H          3.56810       -4.51060       -1.37090
H          5.44670       -6.11210       -1.03720
H          7.55860       -6.68310        0.06290
H          8.05230       -5.67920        1.47030
H          8.62900       -5.24220       -0.18250
H          7.40390       -3.17740        1.43810
H          5.34380       -1.82960        1.36230
