56

C          0.87430       -0.64090        0.08800
N          0.81930        0.63830        0.53390
C          1.82360        1.39630        1.26630
C         -0.43930        1.07010        0.33260
C         -1.15280        0.06100       -0.25610
N         -0.35290       -1.01600       -0.38420
C         -0.77480       -2.22890       -1.08970
Cu         2.62910       -1.84510        0.01110
Br         1.25520       -3.66970        0.98990
C          3.73920       -0.36750       -0.98410
C          3.75800       -0.38650       -2.33840
P          4.53870       -3.32000       -0.11540
O          5.94390       -3.40370       -1.11740
C          7.02960       -4.24530       -0.83100
C          6.74870       -5.75990       -0.79790
C          8.01130       -4.03480       -2.00450
O          5.53690       -2.51250        1.06430
C          5.12400       -2.74210        2.43800
C          4.76720       -4.19600        2.86930
C          6.25000       -2.31510        3.41700
O          4.02310       -4.93000       -0.05010
C          3.26830       -5.27940       -1.19000
C          3.94540       -5.01840       -2.55450
C          2.98460       -6.76960       -1.04800
H          2.73490        0.79200        1.44310
H          1.39610        1.63990        2.26970
H          2.05460        2.34770        0.75150
H         -0.82000        2.04440        0.60970
H         -2.18820        0.10950       -0.57130
H         -1.75910       -2.05880       -1.58490
H         -0.92470       -3.06890       -0.39420
H         -0.05640       -2.48270       -1.90020
H          4.32300        0.38340       -0.47630
H          3.19720       -1.12260       -2.91880
H          4.33180        0.33900       -2.91440
H          7.48780       -3.91170        0.11550
H          6.60270       -6.20190       -1.80400
H          5.94370       -6.06840       -0.12250
H          7.65370       -6.25840       -0.41710
H          7.52140       -4.29370       -2.97890
H          8.89570       -4.69070       -1.89100
H          8.34450       -2.97920       -2.08860
H          4.25070       -2.08760        2.63390
H          5.65100       -4.87240        2.84200
H          3.94600       -4.63900        2.29020
H          4.39350       -4.19470        3.92240
H          7.12170       -3.00850        3.36280
H          5.89160       -2.34520        4.47630
H          6.60800       -1.28830        3.21500
H          2.30480       -4.73990       -1.19020
H          4.88420       -5.56020       -2.66850
H          4.13370       -3.94020       -2.73350
H          3.29600       -5.37770       -3.37090
H          3.93820       -7.34420       -1.03530
H          2.35750       -7.11830       -1.88970
H          2.45420       -6.96490       -0.09040
