87

P          1.02150        0.08080        0.05490
C          0.34680        0.64100        1.73140
C         -1.16300        0.70960        2.03110
C          0.98660       -0.19740        2.86380
C          0.57600        1.51300       -1.09390
C          1.02100        1.20800       -2.52680
C         -0.91710        1.88170       -1.16080
C          0.20710       -1.62860       -0.22950
C          0.38470       -2.67800        0.86660
C         -1.31090       -1.61340       -0.58580
Cu         3.48150        0.08080        0.05490
Br         3.60350        2.50300       -0.60550
C          3.65610       -1.35610       -1.45530
C          2.87280       -1.69660       -2.46940
C          5.63150        0.08080        0.05490
N          6.52400       -0.97120        0.03480
C          6.62940       -2.48580       -0.07880
C          5.58570       -3.50360       -0.18260
C          4.20560       -3.46140        0.42550
C          5.83440       -4.69600       -0.91850
C          7.08900       -4.99770       -1.43360
C          7.34860       -6.13820       -2.37720
C          8.15110       -4.26090       -0.98280
C          7.96840       -3.09580       -0.24030
C          9.28270       -2.64590        0.39810
C          7.81670       -0.32570        0.04770
C          7.63420        1.03060       -0.41070
N          6.36990        1.34170        0.13310
C          6.27450        2.55660        0.91820
C          7.12390        3.71260        0.61440
C          8.05690        3.92600       -0.56930
C          7.12940        4.82420        1.47070
C          6.33590        4.87980        2.60510
C          6.38060        6.08040        3.50620
C          5.47890        3.80910        2.89230
C          5.44320        2.64490        2.09420
C          4.55850        1.53060        2.56720
H          0.76580        1.66120        1.86260
H         -1.63410       -0.28380        2.02350
H         -1.74090        1.39650        1.41150
H         -1.30230        1.09270        3.06630
H          0.53710       -1.19160        2.98370
H          0.82160        0.28820        3.84820
H          2.07750       -0.32770        2.71760
H          1.05440        2.44250       -0.75610
H          0.47490        0.32320       -2.91640
H          2.11510        1.05000       -2.57890
H          0.78470        2.05930       -3.20140
H         -1.57420        1.03000       -1.38650
H         -1.09720        2.63470       -1.95760
H         -1.23880        2.40150       -0.25310
H          0.68310       -2.03410       -1.13100
H         -0.33760       -2.51450        1.69140
H          1.42890       -2.72670        1.22220
H          0.10030       -3.67650        0.46520
H         -1.97500       -1.25220        0.21730
H         -1.66510       -2.64730       -0.79880
H         -1.53030       -1.05540       -1.51000
H          4.55650       -1.88710       -1.46310
H          1.94480       -1.22910       -2.69320
H          3.20310       -2.51380       -3.10900
H          4.02460       -2.54800        1.01980
H          4.13540       -4.32860        1.12890
H          3.40940       -3.64540       -0.32540
H          5.02300       -5.38350       -1.12740
H          6.42310       -6.69630       -2.62130
H          8.11740       -6.82720       -1.97460
H          7.73880       -5.70890       -3.33210
H          9.15720       -4.60290       -1.21190
H          9.12670       -2.07710        1.33370
H          9.78040       -3.53510        0.84670
H         10.01560       -2.20420       -0.30650
H          8.52210       -0.69490       -0.72150
H          8.15990       -0.27790        1.10520
H          7.53700        1.03960       -1.51690
H          8.51570        1.58520       -0.02710
H          8.02670        3.19230       -1.38560
H          9.10880        4.00270       -0.20310
H          7.81000        4.87710       -1.08470
H          7.78700        5.66890        1.25380
H          7.13660        6.81980        3.15690
H          6.66260        5.76750        4.53060
H          5.39800        6.56520        3.54670
H          4.86400        3.88770        3.77060
H          4.03040        1.79660        3.50100
H          5.16590        0.62510        2.76110
H          3.77410        1.31230        1.83240
