42

C          1.02400       -0.65300       -0.05500
N          0.97250        0.63920       -0.06450
C          2.07770        1.55910       -0.21250
C         -0.37870        1.10080        0.13420
C         -1.21740       -0.13030       -0.10540
N         -0.29020       -1.20560        0.14760
C         -0.69570       -2.25250        1.04800
C         -2.04950       -2.68640        1.02530
C         -2.54090       -3.59800        1.95680
C         -1.70210       -4.10870        2.94150
C         -0.36290       -3.71820        2.98130
C          0.15030       -2.80340        2.03480
Cu         2.78020       -1.86970       -0.29550
Br         3.84070       -0.75030        1.78540
C          1.89980       -2.79900       -2.02290
C          0.99580       -2.17090       -2.77660
O          4.45470       -3.02990       -0.52480
C          5.60960       -2.46690        0.05530
C          6.82550       -3.37160       -0.13190
C          5.90080       -1.10050       -0.59350
H          2.80680        1.43970        0.60400
H          1.69820        2.60490       -0.14670
H          2.55410        1.42690       -1.20160
H         -0.69630        1.91190       -0.55660
H         -0.45860        1.44810        1.19680
H         -1.49810       -0.19610       -1.17840
H         -2.13380       -0.11520        0.52530
H         -2.74480       -2.29480        0.29620
H         -3.58550       -3.89600        1.93050
H         -2.09650       -4.79940        3.67730
H          0.27660       -4.11560        3.75710
H          1.18250       -2.49220        2.11190
H          2.23370       -3.79070       -2.30990
H          0.67280       -1.16500       -2.54260
H          0.58550       -2.65170       -3.65730
H          5.50650       -2.45260        1.14880
H          7.06820       -3.50370       -1.20430
H          6.64390       -4.36060        0.33730
H          7.70150       -2.90770        0.37980
H          6.15080       -1.22120       -1.66540
H          6.74600       -0.59970       -0.07240
H          5.02410       -0.42190       -0.55880
