112

P          1.07810        0.01860        0.05970
C          0.03580        0.32650       -1.65130
C         -1.51870        0.21250       -1.63190
C          0.37230        1.71530       -2.28510
C          0.39130       -0.62830       -2.84880
C          0.46540       -1.82860        0.60530
C          0.62070       -2.99060       -0.40680
C          1.16580       -2.36690        1.86840
C         -1.03790       -1.89830        1.01250
C          0.23210        1.44840        1.25580
C         -1.32740        1.33340        1.43170
C          0.82120        1.33610        2.68640
C          0.30470        2.99160        0.93050
Cu         3.53810        0.01860        0.05970
Br         3.53810       -0.58900        2.57740
C          3.53810        0.52290       -2.03030
C          3.98940        1.54300       -2.77280
C          5.68810        0.01860        0.05970
N          6.46730        1.23860        0.11570
C          6.27970        2.81120        0.05090
C          5.18940        3.56120        0.73350
C          4.14470        2.95900        1.51160
C          3.31360        2.41640        0.41230
C          4.81130        2.09210        2.56250
C          5.00570        4.94950        0.68670
C          5.88710        5.74390        0.06420
C          6.98820        5.14670       -0.48100
C          7.20590        3.73890       -0.53410
C          8.45670        3.33250       -1.26070
C          8.47560        3.93010       -2.67820
C          9.67050        3.80280       -0.44190
C          7.70980        0.73580        0.34230
C          7.72110       -0.65320        0.36130
N          6.48490       -1.15980        0.16560
C          6.21170       -2.67040        0.00990
C          6.81310       -3.71380        0.87630
C          7.87290       -3.55470        1.96630
C          7.39620       -4.09100        3.32810
C          9.16190       -4.33030        1.53900
C          6.47040       -5.09510        0.69440
C          5.64150       -5.55260       -0.28760
C          5.18050       -4.66460       -1.19940
C          5.45280       -3.28190       -1.12520
C          5.05840       -2.67530       -2.46100
C          3.52730       -2.55270       -2.63370
C          5.75780       -1.36960       -2.66260
H         -2.06640        0.75420       -0.88490
H         -1.87040       -0.83320       -1.66300
H         -1.94190        0.64140       -2.57110
H          0.03460        2.59330       -1.76200
H         -0.10990        1.83350       -3.28450
H          1.44440        1.84250       -2.47750
H          0.29300       -1.68520       -2.67490
H          1.33580       -0.47510       -3.34910
H         -0.29010       -0.44840       -3.71240
H          1.66400       -3.17530       -0.68820
H         -0.09030       -2.95380       -1.23720
H          0.29000       -3.95190        0.05760
H          2.22120       -2.60160        1.65870
H          0.72280       -3.33460        2.20400
H          1.03070       -1.71070        2.74110
H         -1.73620       -1.53130        0.25710
H         -1.21130       -1.43720        2.00130
H         -1.38070       -2.93940        1.20570
H         -1.79790        0.37320        1.47220
H         -1.89750        1.92450        0.69360
H         -1.66660        1.83110        2.36580
H          0.76780        0.32180        3.08490
H          0.28020        1.98660        3.40790
H          1.85700        1.70110        2.76010
H         -0.25150        3.29910        0.04130
H          1.24920        3.51660        0.96830
H         -0.24630        3.56420        1.71160
H          3.08630       -0.19840       -2.59810
H          4.49840        2.41340       -2.39470
H          3.81960        1.47190       -3.85190
H          3.48820        3.65850        2.08060
H          3.94310        1.90230       -0.26620
H          2.86160        3.19660       -0.24710
H          2.61450        1.77670        0.84840
H          5.21570        1.20520        2.09990
H          4.11260        1.84660        3.38370
H          5.70880        2.56930        3.00140
H          4.14680        5.43730        1.14390
H          5.71460        6.80960        0.04910
H          7.65990        5.86430       -0.93540
H          8.50440        2.24480       -1.40140
H          8.48590        5.04040       -2.68660
H          7.57850        3.59830       -3.23920
H          9.39120        3.61190       -3.20580
H          9.73230        4.91260       -0.39020
H         10.60440        3.41930       -0.89260
H          9.60790        3.43380        0.60640
H          8.58340        1.32650        0.51570
H          8.61910       -1.22520        0.48760
H          8.13660       -2.50490        2.11360
H          7.15140       -5.17510        3.31130
H          6.49600       -3.53580        3.65440
H          8.20130       -3.96840        4.08160
H          9.00560       -5.43020        1.44470
H          9.97500       -4.20990        2.28330
H          9.53390       -3.98060        0.55220
H          6.87790       -5.88370        1.30810
H          5.44660       -6.61660       -0.40510
H          4.63620       -5.09250       -2.03600
H          5.48640       -3.29130       -3.28960
H          3.22080       -2.04420       -1.70300
H          2.69740       -3.29270       -2.71200
H          3.40550       -2.02760       -3.60080
H          5.30240       -0.83980       -1.92200
H          5.53110       -0.82000       -3.59180
H          6.84350       -1.39810       -2.44260
