66

P          0.98370        0.07640        0.06240
C          0.06300        0.69110       -1.59590
C         -1.48770        0.72140       -1.69440
C          0.48410        2.14260       -1.99090
C          0.48940       -0.16820       -2.80810
C          0.62660       -1.86200        0.16710
C          1.31050       -2.69340       -0.94230
C          1.14290       -2.50010        1.47750
C         -0.88100       -2.24590        0.16060
C          0.20360        1.25690        1.43800
C         -1.34490        1.11390        1.52180
C          0.71560        0.89180        2.84230
C          0.46930        2.78270        1.34270
Cu         3.44370        0.07640        0.06240
Br         3.50650       -0.54580        2.48900
C          3.63240        1.13060       -1.73800
C          3.75480        0.74200       -3.00670
N          5.54370        0.07640        0.06240
C          6.42010        0.08060       -0.96570
N          7.69290       -0.14110       -0.54060
C          8.88970       -0.50080       -1.28740
C          8.80730       -0.84100       -2.65540
C          9.93280       -1.32030       -3.33100
C         11.15100       -1.46200       -2.66240
C         11.25310       -1.12020       -1.31710
C         10.13570       -0.64560       -0.63480
C          7.61930       -0.16430        0.80420
C          6.31210       -0.06350        1.16300
H         -1.96840        1.50760       -1.11930
H         -1.98720       -0.23290       -1.52760
H         -1.78660        1.00620       -2.73050
H          0.08210        2.92170       -1.35660
H          0.07440        2.42950       -2.98500
H          1.55390        2.30800       -2.07600
H         -0.09130       -1.09900       -2.86490
H          1.56310       -0.37770       -2.81850
H          0.23880        0.32300       -3.77730
H          2.40340       -2.52300       -0.95250
H          0.91350       -2.55840       -1.94400
H          1.13040       -3.78020       -0.76700
H          2.23680       -2.50710        1.51790
H          0.87640       -3.58020        1.53310
H          0.68290       -2.07560        2.38020
H         -1.39130       -2.00020       -0.77200
H         -1.42990       -1.87670        1.04170
H         -1.01230       -3.34810        0.23850
H         -1.70900        0.09530        1.39790
H         -1.87170        1.77030        0.82770
H         -1.75690        1.47630        2.48660
H          0.59080       -0.16420        3.09000
H          0.15680        1.43770        3.63600
H          1.75080        1.23920        2.97350
H         -0.09530        3.29450        0.56150
H          1.54800        3.02320        1.28780
H          0.04970        3.29170        2.24330
H          3.64940        2.20280       -1.55730
H          3.76990       -0.29220       -3.31180
H          3.84020        1.52200       -3.76550
H          6.12880        0.09150       -2.00680
H          7.87570       -0.77290       -3.19150
H          9.85940       -1.60200       -4.37240
H         12.01470       -1.85950       -3.17770
H         12.18830       -1.24420       -0.78620
H         10.26080       -0.42200        0.41440
H          8.42300       -0.31310        1.50650
H          5.99010       -0.09030        2.18580
