68

C          1.02400       -0.65300       -0.05500
N          1.00800        0.66650       -0.01120
C          2.09890        1.68070       -0.00510
C          3.37210        1.56090       -0.69540
C          3.78720        0.42800       -1.58870
C          4.35400        2.58880       -0.59690
C          4.13540        3.74850        0.14410
C          5.14360        4.86330        0.27600
C          2.94200        3.88980        0.80490
C          1.94200        2.90960        0.76380
C          0.76850        3.25590        1.64380
C         -0.38040        1.07460        0.07420
C         -1.19780       -0.15950       -0.19840
N         -0.29130       -1.23280        0.04660
C         -0.69850       -2.60430        0.37370
C         -1.94420       -3.17830       -0.09270
C         -3.06020       -2.49630       -0.85900
C         -2.23940       -4.53110        0.16630
C         -1.39970       -5.33990        0.91410
C         -1.72870       -6.78000        1.17500
C         -0.25820       -4.79320        1.46300
C          0.09380       -3.45480        1.23190
C          1.27980       -2.99590        2.00770
Cu         2.78020       -1.86970       -0.29550
Br         1.71930       -2.95390       -2.28280
C          3.61050       -0.89300        1.44130
C          2.95020       -0.08080        2.29270
N          4.49560       -3.05820       -0.53040
C          4.12770       -4.01270        0.52820
N          4.74200       -3.67010       -1.73260
C          6.00850       -3.82140       -1.90380
C          6.71740       -3.25640       -0.85190
C          5.77380       -2.74360        0.01130
H          2.99040       -0.30320       -1.75910
H          4.69110       -0.06400       -1.16450
H          4.06910        0.83180       -2.58710
H          5.30260        2.49460       -1.11700
H          6.09020        4.65620       -0.26070
H          5.37660        5.02020        1.35340
H          4.71310        5.81340       -0.11430
H          2.80060        4.79920        1.38060
H          0.92850        4.16720        2.25760
H          0.63540        2.44640        2.38960
H         -0.13160        3.47220        1.03530
H         -0.64040        1.87020       -0.66680
H         -0.62890        1.35220        1.10350
H         -1.44750       -0.17870       -1.28640
H         -2.07410       -0.14500        0.48800
H         -3.10990       -1.41190       -0.88930
H         -4.02120       -2.73440       -0.35100
H         -3.10030       -2.87820       -1.89650
H         -3.15950       -4.96250       -0.21210
H         -2.68360       -7.07560        0.69020
H         -1.81890       -6.95350        2.26780
H         -0.91790       -7.42350        0.77240
H          0.35870       -5.42820        2.09260
H          1.74270       -3.78930        2.63840
H          1.01560       -2.15200        2.67410
H          2.02330       -2.72070        1.31460
H          4.62000       -1.05580        1.73390
H          1.91110        0.16750        2.19740
H          3.47260        0.33960        3.14500
H          4.84270       -4.87420        0.61050
H          3.15570       -4.48090        0.26600
H          4.03600       -3.55290        1.53750
H          6.44530       -4.31220       -2.76210
H          7.79030       -3.21160       -0.71610
H          6.03530       -2.24190        0.92530
