68

C          1.02400       -0.65300       -0.05500
N         -0.09320       -0.80460       -0.70470
C         -0.41270       -1.69210       -1.82500
C          0.38180       -1.30900       -3.07740
C         -0.28730       -3.17320       -1.50250
C         -1.05990        0.19030       -0.29910
C         -0.45100        0.82940        0.92860
N          0.93900        0.47870        0.82170
C          1.95100        1.24270        1.54750
C          2.73000        0.39700        2.54830
C          2.88750        1.99490        0.60130
Cu         2.78020       -1.86970       -0.29550
Br         3.66700       -0.23370       -2.09700
C          2.04410       -3.22780        1.19990
C          0.88070       -3.09540        1.84250
P          4.78960       -3.26190       -0.57060
N          6.34620       -2.68270       -1.20760
C          6.73970       -1.58670       -0.29890
C          7.45060       -3.57940       -1.49520
O          4.24740       -4.21220       -1.81340
C          3.80170       -5.47020       -1.56930
C          2.60480       -5.81880       -2.21230
C          2.01230       -7.06230       -2.01390
C          2.61780       -8.00100       -1.18610
C          3.82940       -7.70190       -0.56250
C          4.43570       -6.44220       -0.72210
C          5.72010       -6.24570        0.04530
C          6.69530       -7.26530        0.06480
C          7.88190       -7.11590        0.78650
C          8.10320       -5.96120        1.53820
C          7.13970       -4.95950        1.57300
C          5.95750       -5.08560        0.81320
O          5.07640       -4.08920        0.83970
H         -1.48070       -1.50900       -2.09600
H          1.43970       -1.60750       -2.98400
H          0.31450       -0.21110       -3.25060
H         -0.04920       -1.81560       -3.96850
H          0.76820       -3.44230       -1.30230
H         -0.64580       -3.76580       -2.37350
H         -0.91990       -3.42680       -0.62730
H         -2.06710       -0.22540       -0.07070
H         -1.13370        0.93100       -1.12620
H         -0.83210        0.32570        1.84750
H         -0.65630        1.92040        0.96890
H          1.42610        2.02990        2.13540
H          3.35180       -0.35900        2.03200
H          2.02850       -0.09460        3.25180
H          3.39630        1.06910        3.14150
H          3.55420        1.30320        0.06970
H          3.53040        2.69640        1.17930
H          2.30250        2.59690       -0.12880
H          2.65450       -4.08740        1.44770
H          0.20160       -2.27730        1.65920
H          0.58710       -3.83490        2.58000
H          5.90220       -0.86080       -0.15390
H          7.58400       -0.99850       -0.71000
H          7.00810       -1.97150        0.70950
H          7.12710       -4.39120       -2.17330
H          7.93780       -3.95160       -0.58210
H          8.22750       -2.98300       -2.02700
H          2.11330       -5.09850       -2.85390
H          1.07180       -7.29670       -2.49570
H          2.15260       -8.96290       -1.02190
H          4.26260       -8.45370        0.08480
H          6.55100       -8.17570       -0.50730
H          8.63370       -7.89340        0.76660
H          9.02080       -5.84210        2.09550
H          7.31880       -4.06390        2.14830
