61

C          2.32700        0.03400        0.00000
N          1.53760        1.13670       -0.01190
C          1.99530        2.53050       -0.04470
C          2.32180        2.96280       -1.47580
C          2.85280        4.39920       -1.53510
C          3.13420        4.82200       -2.97790
C          0.27510        0.65350        0.02560
C          0.32230       -0.70590        0.07710
C         -0.83060       -1.49090        0.11070
C         -2.07570       -0.82050        0.07380
C         -2.12380        0.58970        0.01260
C         -0.93820        1.34520       -0.00450
N          1.59950       -1.11600        0.08480
C          2.12710       -2.49020        0.12270
C          2.15310       -3.08480        1.52300
C          1.83900       -2.32960        2.67810
C          1.93260       -2.91060        3.94680
C          2.30950       -4.24580        4.08830
C          2.60950       -5.00930        2.96020
C          2.54210       -4.43470        1.68960
Cu         4.47690        0.05800        0.00140
Br         4.47320        0.23460        2.58540
C          4.47990       -0.08850       -2.14360
C          3.38670       -0.17640       -2.90690
N          6.57670        0.08150        0.00280
C          7.19860        0.86590        0.92790
C          8.57160        1.12540        0.81610
C          9.33920        0.39030       -0.09390
C         10.82190        0.57980       -0.19980
C          8.70100       -0.52000       -0.93490
C          7.30700       -0.56920       -0.94760
H          2.87660        2.64060        0.62010
H          1.19700        3.19950        0.35050
H          1.39720        2.88380       -2.09020
H          3.09350        2.29160       -1.89980
H          3.79750        4.47140       -0.95120
H          2.11030        5.10210       -1.09780
H          3.88450        4.14630       -3.44200
H          3.53150        5.85890       -2.99890
H          2.19890        4.79040       -3.57710
H         -0.79400       -2.57240        0.14870
H         -2.99240       -1.39770        0.08680
H         -3.08140        1.08530       -0.01890
H         -0.97710        2.43030       -0.05900
H          3.15480       -2.51920       -0.27250
H          1.50000       -3.12160       -0.54890
H          1.56180       -1.29290        2.60220
H          1.70570       -2.31820        4.82390
H          2.37510       -4.68870        5.07540
H          2.90290       -6.04610        3.07510
H          2.77970       -5.04350        0.82320
H          5.42240       -0.08360       -2.67050
H          2.38700       -0.18290       -2.50110
H          3.49230       -0.24140       -3.98560
H          6.61660        1.48470        1.59390
H          9.02780        1.89500        1.42830
H         11.15770        1.47600        0.36320
H         11.10210        0.72070       -1.26670
H         11.34280       -0.31610        0.19530
H          9.27220       -1.15080       -1.60590
H          6.82450       -1.27220       -1.61050
