51

C          1.02400       -0.65300       -0.05500
N          1.00090        0.64210        0.05710
C          2.13230        1.56020        0.20000
C          2.22340        2.52310       -0.99850
C          1.96100        2.40880        1.48110
C         -0.37340        1.12460        0.15260
C         -1.21400       -0.07560       -0.22200
N         -0.30390       -1.17810       -0.04440
C         -0.70730       -2.45170        0.54060
C         -1.26160       -2.24120        1.96660
C         -1.78710       -3.10690       -0.33040
Cu         2.78020       -1.86970       -0.29550
Br         3.05440       -1.98250        2.27750
C          2.55260       -1.77610       -2.43130
C          1.62170       -1.01330       -3.01980
N          4.49560       -3.05820       -0.53040
C          5.50180       -3.20210        0.42880
O          5.50590       -2.43930        1.54170
C          6.54580       -2.18640        2.41730
C          6.65190       -3.98460        0.16980
C          6.79560       -4.64860       -1.02950
C          5.80810       -4.52800       -1.97450
C          4.70160       -3.72670       -1.72050
H          3.08550        0.99220        0.26790
H          1.28240        3.09600       -1.14070
H          2.45140        1.96890       -1.93060
H          3.03380        3.26810       -0.83140
H          1.04570        3.04300        1.41980
H          2.81500        3.10440        1.62080
H          1.87380        1.76090        2.37680
H         -0.60510        1.97260       -0.52660
H         -0.57150        1.41150        1.20770
H         -1.42750       -0.02500       -1.31280
H         -2.17530       -0.12280        0.32620
H          0.17840       -3.12010        0.60330
H         -2.18530       -1.62280        1.96540
H         -0.51210       -1.73470        2.61040
H         -1.52500       -3.21750        2.42820
H         -2.69070       -2.45990       -0.38500
H         -2.09300       -4.08230        0.10370
H         -1.40840       -3.26860       -1.35900
H          3.14710       -2.24290       -3.18480
H          0.90790       -0.41340       -2.48350
H          1.55640       -0.97870       -4.10410
H          6.18480       -1.49560        3.20800
H          7.38210       -1.68600        1.88210
H          6.89100       -3.12160        2.90080
H          7.46380       -4.05860        0.87820
H          7.67240       -5.24940       -1.22590
H          5.89010       -5.06370       -2.91390
H          3.98010       -3.80480       -2.48450
