39

C          1.02400       -0.65300       -0.05500
N          0.98550        0.61310       -0.26570
C          2.09520        1.43980       -0.67700
C         -0.32280        1.15550        0.02800
C         -1.20730       -0.08740        0.14970
N         -0.24790       -1.13680        0.36280
C         -0.59440       -2.39680        0.94530
C         -1.88770       -2.92170        0.75710
C         -2.27960       -4.10980        1.37210
C         -1.39060       -4.78260        2.21500
C         -0.10520       -4.27040        2.42050
C          0.30250       -3.08900        1.77700
Cu         2.78020       -1.86970       -0.29550
Br         4.00660       -0.45300        1.49260
C          1.76220       -3.04580       -1.77980
C          0.49890       -2.88140       -2.18510
N          4.49560       -3.05820       -0.53040
C          5.68050       -2.87450        0.10120
O          6.56590       -3.78590       -0.22980
C          5.99330       -4.59780       -1.07890
C          4.70630       -4.16450       -1.28330
H          2.98300        0.82570       -0.93400
H          2.34880        2.15500        0.13190
H          1.79570        2.01720       -1.57790
H         -0.71720        1.83120       -0.75720
H         -0.25030        1.68820        1.00490
H         -1.72430       -0.30380       -0.81080
H         -1.93660        0.02580        0.98000
H         -2.59970       -2.41340        0.11970
H         -3.27230       -4.50360        1.21100
H         -1.70300       -5.68910        2.71580
H          0.57190       -4.78030        3.09510
H          1.29070       -2.69360        1.96990
H          2.26710       -3.82000       -2.31250
H         -0.15980       -2.12470       -1.80870
H          0.09710       -3.52530       -2.96150
H          5.91310       -2.08570        0.79010
H          6.46290       -5.46430       -1.52500
H          4.02670       -4.68030       -1.92670
