66

C          2.32700        0.03400        0.00000
N          1.48220        1.11430        0.04070
C          1.79770        2.55670        0.07940
C          2.58360        3.08650       -1.12600
C          1.84640        2.95510       -2.46420
C          2.65820        3.61500       -3.58210
C          0.23650        0.57220        0.06960
C          0.33320       -0.79410        0.07420
C         -0.79810       -1.61950        0.08470
C         -2.06120       -1.00760        0.09160
C         -2.17080        0.39690        0.09070
C         -1.01760        1.20500        0.08370
N          1.63120       -1.15020        0.03590
C          2.12810       -2.53800       -0.08690
C          2.19980       -3.37970        1.18300
C          1.36900       -4.51020        1.35910
C          1.54280       -5.36310        2.45980
C          2.55170       -5.10940        3.39010
C          3.37260       -3.98960        3.23520
C          3.19470       -3.12510        2.14400
Cu         4.47690        0.05800        0.00140
Br         4.39850       -0.67650       -2.37430
C          4.59270        0.67340        2.01030
C          3.62750        1.04490        2.82360
N          6.57670        0.08150        0.00280
C          7.47150        0.53880        0.92510
N          8.75400        0.30600        0.58340
C          9.93650        0.66130        1.35300
C          9.84020        1.42470        2.54410
C         10.97970        1.74270        3.28830
C         12.23460        1.30970        2.86660
C         12.35400        0.56350        1.69430
C         11.21910        0.24320        0.94140
C          8.68830       -0.32690       -0.60250
C          7.36170       -0.42370       -0.97740
H          2.38780        2.77900        0.98740
H          0.86790        3.15530        0.15760
H          3.57040        2.58250       -1.18160
H          2.75540        4.17170       -0.93860
H          0.85440        3.45630       -2.40860
H          1.69400        1.88170       -2.70320
H          2.78510        4.70180       -3.38060
H          2.13530        3.50050       -4.55450
H          3.66280        3.14750       -3.66030
H         -0.71940       -2.69760        0.08100
H         -2.95570       -1.61860        0.09240
H         -3.15220        0.85450        0.08990
H         -1.12860        2.27830        0.07420
H          3.14250       -2.54050       -0.52770
H          1.48390       -3.05320       -0.83330
H          0.60030       -4.75420        0.63780
H          0.91230       -6.23700        2.58120
H          2.70470       -5.78690        4.22390
H          4.16400       -3.80670        3.95130
H          3.86560       -2.28650        2.02380
H          5.52840        0.62920        2.51190
H          2.61500        1.13720        2.49680
H          3.90360        1.27420        3.85360
H          7.25060        1.08670        1.80510
H          8.89820        1.78900        2.92210
H         10.88780        2.32410        4.19770
H         13.11390        1.55220        3.44930
H         13.32970        0.22750        1.36950
H         11.35640       -0.34220        0.04570
H          9.53090       -0.69920       -1.16680
H          7.02660       -0.91740       -1.87330
