51

C          1.02400       -0.65300       -0.05500
N          0.97410        0.63630       -0.27050
C          2.03790        1.57920       -0.62690
C          3.14840        1.64970        0.41690
C          2.58190        1.34050       -2.03180
C         -0.36100        1.14230       -0.04830
C         -1.23030       -0.09240        0.04820
N         -0.27680       -1.15000        0.26370
C         -0.73760       -2.48660        0.61860
C         -0.30600       -3.53590       -0.39810
C         -0.32570       -2.84830        2.04510
Cu         2.78020       -1.86970       -0.29550
Br         2.16220       -2.27110       -2.77840
C          3.29320       -1.53660        1.76570
C          2.52060       -0.80960        2.58610
N          4.49560       -3.05820       -0.53040
C          5.50940       -3.09550        0.40460
C          6.73410       -3.75770        0.19720
O          7.79580       -3.62030        1.04010
C          7.91310       -2.66850        2.04060
C          6.89380       -4.51650       -0.94760
C          5.88320       -4.53210       -1.89060
C          4.72740       -3.77010       -1.68890
H          1.58620        2.60110       -0.65130
H          3.72640        0.70950        0.44640
H          2.71180        1.86800        1.41750
H          3.84220        2.48040        0.16480
H          3.11910        0.37790       -2.09640
H          3.28110        2.16280       -2.29880
H          1.74470        1.35980       -2.76330
H         -0.72490        1.80800       -0.86500
H         -0.34220        1.69630        0.91690
H         -1.73470       -0.30230       -0.91900
H         -1.97730        0.01630        0.86490
H         -1.85190       -2.48170        0.62530
H          0.79900       -3.63420       -0.41430
H         -0.67280       -3.24940       -1.40590
H         -0.75590       -4.51650       -0.12990
H          0.77360       -2.92930        2.14180
H         -0.78930       -3.81580        2.33560
H         -0.70280       -2.07130        2.74680
H          4.10960       -1.90680        2.33510
H          1.61280       -0.31810        2.28210
H          2.80560       -0.67750        3.62680
H          5.52540       -2.50310        1.25190
H          8.93110       -2.71110        2.47830
H          7.16770       -2.84600        2.84280
H          7.77350       -1.64590        1.61860
H          7.81630       -5.05390       -1.12760
H          6.00400       -5.11160       -2.79700
H          4.02430       -3.84850       -2.47890
