108

P          0.91740        0.05620       -0.00540
C         -0.00690        1.77200        0.48300
C         -1.55790        1.87410        0.51590
C          0.43550        2.23750        1.89660
C          0.36930        2.97370       -0.43860
C          0.51480       -0.21020       -1.93180
C          1.19030        0.82090       -2.86170
C          0.98590       -1.57410       -2.50310
C         -1.00250       -0.22440       -2.27610
C          0.14950       -1.20200        1.30530
C         -1.40320       -1.28060        1.19930
C          0.65460       -2.63190        1.05250
C          0.43800       -0.97910        2.81450
Cu         3.37740        0.05620       -0.00540
Br         3.30310       -2.35960       -0.62610
C          3.48480        2.13620        0.06030
C          3.62140        2.89630        1.15420
P          5.83740        0.05620       -0.00540
C          6.57500       -1.70250       -0.40290
C          7.44050       -2.03160       -1.52440
C          8.33480       -1.11870       -2.28950
C          7.53000       -3.34100       -2.03020
C          6.87050       -4.40300       -1.45670
C          6.91160       -5.76390       -2.11300
C          6.20010       -4.17760       -0.26080
C          6.07590       -2.87450        0.29300
C          5.32560       -2.82630        1.60400
C          6.19240        1.83280       -0.82680
C          6.45680        3.13180       -0.17840
C          6.54380        3.44870        1.29070
C          6.68170        4.32620       -0.94230
C          6.72580        4.33480       -2.32370
C          7.00500        5.58200       -3.14010
C          6.53560        3.14780       -2.97270
C          6.27080        1.93990       -2.28310
C          6.20520        0.80840       -3.23730
C          6.52570        0.02610        1.79660
C          5.68440       -0.08460        2.98110
C          4.20980        0.02880        3.01040
C          6.25060       -0.39250        4.24560
C          7.59060       -0.50080        4.46080
C          8.15530       -0.86730        5.81780
C          8.43760       -0.21370        3.39430
C          7.94250        0.07900        2.09730
C          9.01840        0.50540        1.12800
H         -2.04660        1.31770        1.30500
H         -2.05570        1.69220       -0.43640
H         -1.86490        2.91320        0.77790
H         -0.06130        1.72170        2.70960
H          0.14580        3.29270        2.10460
H          1.51080        2.14770        2.06190
H         -0.11620        2.92420       -1.41900
H          1.42510        3.19280       -0.54090
H         -0.03200        3.93350       -0.04130
H          2.28660        0.83540       -2.70600
H          0.80170        1.83140       -2.79870
H          0.99710        0.55460       -3.92820
H          2.07130       -1.60710       -2.65410
H          0.62350       -1.72940       -3.54530
H          0.58830       -2.44220       -1.95890
H         -1.50330        0.72480       -2.09740
H         -1.53960       -1.07370       -1.82170
H         -1.16720       -0.38690       -3.36640
H         -1.78810       -1.17070        0.18670
H         -1.90900       -0.56350        1.85460
H         -1.81490       -2.23120        1.59570
H          0.48860       -2.96960        0.02740
H          0.11560       -3.37000        1.68990
H          1.70860       -2.72660        1.36760
H         -0.10210       -0.15100        3.27330
H          1.51390       -0.91480        3.03610
H          0.01550       -1.82580        3.40580
H          3.43680        2.63800       -0.89590
H          3.70920        2.50380        2.15670
H          3.65070        3.97640        1.05190
H          8.39060       -0.11240       -1.84710
H          8.06300       -1.16140       -3.36690
H          9.36750       -1.53710       -2.25480
H          8.11620       -3.54150       -2.92480
H          7.46740       -5.73870       -3.07850
H          5.87920       -6.10270       -2.35480
H          7.39680       -6.50990       -1.45560
H          5.74110       -5.03500        0.22090
H          4.85180       -3.79850        1.85990
H          4.52520       -2.08160        1.60680
H          6.04990       -2.60750        2.40690
H          6.35330        2.59770        1.95050
H          5.82910        4.26750        1.53670
H          7.55060        3.88110        1.50830
H          6.85230        5.28050       -0.44720
H          7.11190        6.49190       -2.51330
H          6.19400        5.76860       -3.88140
H          7.95140        5.44750       -3.70790
H          6.61290        3.16620       -4.05610
H          5.86420        1.07460       -4.26030
H          5.70620       -0.10000       -2.85780
H          7.26890        0.71040       -3.49490
H          3.79160        0.25710        2.03720
H          3.96850        0.86420        3.70750
H          3.74850       -0.89330        3.42140
H          5.57640       -0.53050        5.11410
H          7.35220       -1.07280        6.56170
H          8.80740       -0.06850        6.23300
H          8.76310       -1.80200        5.73180
H          9.50870       -0.23740        3.59230
H         10.02490        0.53080        1.59640
H          8.83240        1.56040        0.83380
H          9.09330       -0.15210        0.24530
