31

N         -1.44040       -0.09980       -0.11480
C         -0.68730        0.66670       -0.96420
C          0.72000        0.66600       -0.87580
C          1.35510       -0.11020        0.09430
Cl         3.11310       -0.12980        0.21150
C          0.57850       -0.87820        0.95990
C         -0.82280       -0.86880        0.82940
Cu        -3.47560       -0.20170       -0.28210
Br        -3.21930       -2.27730       -1.80990
C         -3.68850        1.52130        0.98620
C         -2.65960        2.21500        1.48730
N         -5.56620       -0.26590       -0.49730
C         -5.86630        0.27610       -1.84540
C         -6.08610       -1.64080       -0.45790
C         -6.32860        0.57530        0.45010
H         -1.15650        1.25940       -1.73380
H          1.32150        1.25890       -1.55730
H          1.06590       -1.48030        1.72410
H         -1.40640       -1.48120        1.50140
H         -4.59000        1.91070        1.40400
H         -1.62470        1.98190        1.29710
H         -2.86720        3.03940        2.17230
H         -5.39130       -0.32280       -2.64400
H         -5.49190        1.32190       -1.94010
H         -6.96890        0.30460       -2.02970
H         -5.74410       -2.26980       -1.28770
H         -7.19810       -1.64460       -0.51750
H         -5.79590       -2.09950        0.50960
H         -6.21090        1.66630        0.25310
H         -6.06100        0.28990        1.49560
H         -7.42850        0.44270        0.36110
