64

N         -0.65900       -1.22800       -0.05100
C         -0.89830       -0.48320        1.06480
F         -1.66520       -0.98980        2.06070
C         -0.33160        0.78750        1.19550
C          0.44390        1.29900        0.15340
C          0.65570        0.53270       -0.99410
C          0.10040       -0.74680       -1.07290
Cu        -1.57560       -3.10440       -0.27260
Br        -3.29190       -1.67350       -1.32350
C          0.02390       -4.01110        0.77880
C          0.90150       -3.35540        1.53040
P         -2.64940       -5.30240       -0.53210
C         -3.81380       -5.84820        0.92580
C         -4.96930       -4.83530        1.13010
C         -4.47940       -7.25740        0.87060
C         -3.02470       -5.72480        2.26890
C         -3.73830       -5.36970       -2.12530
C         -2.82360       -4.99190       -3.31050
C         -4.19560       -6.81920       -2.44210
C         -5.01210       -4.50270       -2.22120
C         -1.22770       -6.45260       -0.51490
C         -1.07990       -7.53620        0.36550
C          0.06740       -8.30710        0.39790
C          1.15140       -8.06030       -0.48250
N          2.38930       -8.81340       -0.36450
C          2.63420       -9.83420        0.65180
C          3.55840       -8.56440       -1.21490
C          0.97120       -7.01800       -1.42210
C         -0.18420       -6.24090       -1.43260
H         -0.49880        1.37330        2.09020
H          0.87270        2.28970        0.23150
H          1.23730        0.92840       -1.81660
H          0.24250       -1.34550       -1.96270
H          0.18130       -5.06910        0.80060
H          0.82400       -2.29950        1.71210
H          1.67050       -3.91870        2.05370
H         -5.76110       -4.90590        0.38680
H         -4.58680       -3.79340        1.17030
H         -5.50830       -5.03640        2.08410
H         -5.29640       -7.32110        0.14610
H         -5.01980       -7.45230        1.82400
H         -3.80940       -8.11510        0.71580
H         -2.76230       -4.66800        2.48220
H         -2.07990       -6.27000        2.35730
H         -3.64970       -6.08300        3.12000
H         -2.00490       -5.73110       -3.42610
H         -2.39720       -3.97720       -3.19760
H         -3.38140       -5.03110       -4.27430
H         -3.35610       -7.54290       -2.38400
H         -4.63230       -6.88360       -3.46400
H         -5.01970       -7.16460       -1.81740
H         -4.85970       -3.45280       -2.03060
H         -5.83690       -4.86820       -1.60440
H         -5.43200       -4.55560       -3.24900
H         -1.81850       -7.81590        1.07710
H          0.06000       -9.08050        1.14170
H          1.80140      -10.04760        1.33010
H          3.48300       -9.52040        1.30280
H          2.89980      -10.79680        0.17160
H          3.43410       -7.80150       -1.99320
H          3.84730       -9.50220       -1.73040
H          4.40980       -8.23350       -0.57780
H          1.71140       -6.74410       -2.15410
H         -0.24440       -5.43290       -2.15170
