33

N         -1.34830        0.07540       -0.07140
C         -0.72180        1.31290        0.02990
C          0.67010        1.46720        0.09430
C          1.48900        0.35790        0.05600
F          2.83860        0.48550        0.09060
C          0.90520       -0.88290       -0.05040
C         -0.48510       -0.98640       -0.11770
Cu        -3.47560       -0.20170       -0.28210
Br        -3.60370        2.38040       -0.12710
C         -3.36940       -2.34530       -0.41070
C         -2.59480       -3.42330       -0.15150
N         -5.58070       -0.32230       -0.53180
C         -6.40320       -1.39800       -0.18010
O         -5.93120       -2.40790        0.60670
C         -6.69060       -3.31830        1.33150
C         -7.79090       -1.36650       -0.47340
C         -8.34100       -0.30350       -1.15820
C         -7.53420        0.76450       -1.49280
C         -6.18080        0.76330       -1.12670
H         -1.20880        2.24730        0.06020
H          1.10880        2.45400        0.16100
H          1.52230       -1.77170       -0.11040
H         -0.80100       -1.93010       -0.29190
H         -4.29740       -2.70550       -0.80590
H         -1.66260       -3.48630        0.38250
H         -2.98610       -4.41030       -0.38170
H         -6.02020       -4.03820        1.84150
H         -7.36970       -3.89850        0.67180
H         -7.28980       -2.79450        2.11170
H         -8.46530       -2.15650       -0.17240
H         -9.39570       -0.30590       -1.41560
H         -7.95870        1.58710       -2.05630
H         -5.61090        1.59500       -1.48190
