33

N         -0.65900       -1.22800       -0.05100
C         -0.55550       -0.32060       -1.06980
C         -1.10850       -0.61140       -2.42790
C          0.06000        0.91850       -0.83340
C          0.57890        1.20130        0.42880
C          0.46690        0.25950        1.44970
C         -0.17490       -0.95080        1.19070
Cu        -1.57560       -3.10440       -0.27260
Br        -3.78070       -2.14010        0.68440
C          0.25490       -3.90480       -1.06700
C          1.30410       -3.17200       -1.44340
N         -2.49230       -4.98070       -0.49410
C         -3.12870       -4.53090       -1.74390
N         -1.75540       -6.10660       -0.75160
C         -2.40910       -7.15360       -0.39360
C         -3.62440       -6.79730        0.18650
C         -3.67060       -5.41230        0.15910
H         -1.50760       -1.64350       -2.48390
H         -0.30280       -0.49270       -3.18310
H         -1.92290        0.10920       -2.66170
H          0.14280        1.65920       -1.61970
H          1.07000        2.14690        0.62060
H          0.87560        0.46100        2.43250
H         -0.26270       -1.69310        1.97350
H          0.36040       -4.97790       -1.15210
H          1.31780       -2.09680       -1.37640
H          2.19560       -3.66780       -1.81550
H         -2.33300       -4.20690       -2.44990
H         -3.78990       -3.64940       -1.60440
H         -3.70230       -5.33140       -2.27590
H         -2.03900       -8.16010       -0.53050
H         -4.38610       -7.46000        0.57720
H         -4.48550       -4.80680        0.53000
