32

N         -1.41200       -0.17960       -0.04150
C         -0.79180        1.14190       -0.06610
C          0.61500        1.23120       -0.03340
F          1.20870        2.44760       -0.12410
C          1.39560        0.08380        0.03590
C          0.77140       -1.15110        0.14240
C         -0.62790       -1.22310        0.09760
Cu        -3.47560       -0.20170       -0.28210
Br        -3.70600        2.07650        0.92810
C         -3.28440       -2.09300       -1.28670
C         -2.21130       -2.57540       -1.92870
N         -5.52940       -0.44250       -0.46880
C         -6.19290       -1.57740       -0.55540
N         -7.52470       -1.63920       -0.81420
C         -8.25350       -0.52450       -1.06270
O         -9.56440       -0.61650       -1.40280
C        -10.22820       -1.82100       -1.55060
C         -7.62730        0.71720       -0.98290
C         -6.26390        0.76780       -0.66170
H         -1.33490        2.03680       -0.13030
H          2.47770        0.15340        0.02040
H          1.36750       -2.04930        0.25720
H         -1.07440       -2.19840        0.20560
H         -4.13140       -2.71730       -1.48110
H         -1.30590       -2.00510       -2.07120
H         -2.27930       -3.52120       -2.46190
H         -5.71120       -2.49890       -0.29210
H        -11.28710       -1.63970       -1.83030
H        -10.20590       -2.38650       -0.59520
H         -9.75410       -2.43100       -2.35150
H         -8.17150        1.62840       -1.20400
H         -5.78280        1.72810       -0.68490
