37

N         -1.42940       -0.11730       -0.12210
C         -0.71180        0.73540       -0.91800
C          0.69750        0.78780       -0.84830
F          1.41950        1.58910       -1.67410
C          1.35640       -0.00790        0.08580
C          0.61190       -0.84760        0.91200
C         -0.78270       -0.92000        0.77120
Cu        -3.47560       -0.20170       -0.28210
Br        -3.20530       -2.12890       -1.99120
C         -3.70000        1.39800        1.13670
C         -2.69930        2.05370        1.73330
N         -5.53700       -0.37610       -0.41540
C         -6.20660       -1.57220       -0.61810
N         -5.56640       -2.84490       -0.37410
C         -5.99910       -4.09100       -1.00070
C         -4.57000       -3.00240        0.68030
C         -7.59380       -1.52610       -0.90720
C         -8.26610       -0.31370       -1.02640
C         -7.58740        0.86900       -0.80020
C         -6.23210        0.81830       -0.46330
H         -1.20040        1.36710       -1.65810
H          2.43960        0.02810        0.17040
H          1.11870       -1.44890        1.65560
H         -1.35550       -1.55860        1.41530
H         -4.69230        1.69870        1.44330
H         -1.65800        1.83030        1.55620
H         -2.93330        2.83800        2.45200
H         -6.82490       -3.94510       -1.72000
H         -6.25320       -4.84040       -0.22150
H         -5.16730       -4.54880       -1.58270
H         -4.18240       -2.04250        1.07290
H         -3.72690       -3.62870        0.32130
H         -5.03720       -3.54710        1.53260
H         -8.18990       -2.41730       -1.02250
H         -9.32030       -0.28870       -1.28270
H         -8.10920        1.81520       -0.91620
H         -5.74190        1.78090       -0.38320
