37

N         -1.46390       -0.05090       -0.14050
C         -0.87140        1.16590       -0.01320
C          0.52250        1.26900       -0.00050
C          1.31400        0.10430       -0.04000
O          2.67250        0.14140       -0.03980
C          3.43380        1.28370       -0.19300
C          0.67520       -1.13860       -0.10290
C         -0.71920       -1.19220       -0.19720
Cu        -3.47560       -0.20170       -0.28210
Br        -3.19180       -0.25760       -2.85590
C         -3.71130       -0.15530        1.85450
C         -2.66920       -0.01580        2.67800
N         -5.51660       -0.45680       -0.51560
C         -6.40700       -0.04100        0.44250
C         -7.76940       -0.30050        0.32950
C         -8.25880       -1.00710       -0.77100
O         -9.56720       -1.34780       -0.89900
C        -10.52890       -1.13560        0.06640
C         -7.36520       -1.38750       -1.76780
C         -6.00740       -1.09530       -1.63240
H         -1.47880        2.05810       -0.00210
H          0.97320        2.25050        0.03130
H          4.51080        1.01860       -0.18280
H          3.23570        1.99980        0.63150
H          3.20070        1.75880       -1.17130
H          1.25660       -2.05490       -0.10110
H         -1.21390       -2.15460       -0.25320
H         -4.64920       -0.29690        2.36080
H         -1.65700        0.08850        2.32040
H         -2.82320       -0.03360        3.75270
H         -6.10780        0.53640        1.28530
H         -8.42450        0.04760        1.11710
H        -11.49730       -1.54370       -0.28390
H        -10.64320       -0.04820        0.25890
H        -10.24460       -1.65770        1.00710
H         -7.70700       -1.94030       -2.63320
H         -5.36560       -1.47220       -2.39830
