44

N          1.14300       -0.69700        0.08900
C          1.16340        0.55300       -0.47190
C          2.45560        1.29230       -0.65100
C         -0.03470        1.20690       -0.78930
C         -1.24970        0.58190       -0.54540
C         -1.26200       -0.68940        0.02750
C         -0.04900       -1.32290        0.34880
C         -0.09590       -2.73820        0.85390
Cu         2.95390       -1.70510        0.42730
Br         2.41660       -1.82110        2.95830
C          3.39990       -1.60890       -1.67380
C          4.42240       -0.85620       -2.09930
N          4.76480       -2.71320        0.76550
C          5.37280       -2.96970        2.05640
C          5.03530       -2.43720        3.42890
C          6.58080       -3.68960        2.24300
C          7.31680       -4.16800        1.22460
C          8.61220       -4.89890        1.45000
C          6.84960       -3.94080       -0.01790
C          5.62690       -3.27320       -0.27730
C          5.44550       -3.34870       -1.78810
H          3.29630        0.70810       -0.23600
H          2.40550        2.23740       -0.07570
H          2.62280        1.52070       -1.72170
H         -0.02490        2.20230       -1.21440
H         -2.17600        1.07400       -0.79270
H         -2.21120       -1.18020        0.19990
H         -1.13370       -3.12540        0.90070
H          0.28670       -2.82690        1.87550
H          0.49070       -3.39190        0.17470
H          2.61810       -1.54700       -2.42590
H          5.16030       -0.44570       -1.42360
H          4.43930       -0.54300       -3.14640
H          4.88140       -1.34030        3.37590
H          5.85490       -2.45180        4.18420
H          4.32210       -3.12500        3.93090
H          7.00790       -3.87470        3.22560
H          8.84620       -5.00450        2.53110
H          9.44090       -4.33450        0.97300
H          8.55610       -5.91510        1.00740
H          7.48120       -4.33600       -0.80590
H          6.09270       -4.08510       -2.31110
H          5.97950       -2.50450       -2.26400
H          4.45600       -3.72330       -2.10240
