52

N          0.94220        0.07980       -0.01710
C          0.50000        1.26880        0.73600
C          0.46740        0.15510       -1.41140
C          0.34030       -1.11160        0.61840
Cu         3.04220        0.07980       -0.01710
Br         3.14580        2.27160       -1.20650
C          3.11760       -1.84000        0.81940
C          3.66170       -2.11330        2.00540
P          5.50220        0.07980       -0.01710
N          6.66180        1.30400       -0.57420
C          6.43310        2.56660        0.16580
C          8.06050        1.03160       -0.85110
O          5.79360       -1.27020       -0.93780
C          5.95640       -2.49190       -0.38120
C          5.19030       -3.52460       -0.93570
C          5.24160       -4.81410       -0.41070
C          6.08560       -5.09940        0.65700
C          6.89030       -4.09120        1.19830
C          6.83600       -2.77170        0.70840
C          7.72300       -1.77010        1.37710
C          9.06740       -2.11160        1.62810
C          9.93250       -1.21230        2.25380
C          9.46150        0.02720        2.67930
C          8.11670        0.36950        2.47880
C          7.25760       -0.50710        1.79850
O          5.98730       -0.11980        1.56740
H         -0.61010        1.34450        0.76790
H          0.87880        2.20250        0.28060
H          0.89040        1.22690        1.77590
H         -0.64450        0.13030       -1.46420
H          0.87620       -0.69540       -1.99780
H          0.79380        1.09040       -1.90420
H         -0.77080       -1.02850        0.65010
H          0.69250       -1.22450        1.66590
H          0.56510       -2.03250        0.04210
H          2.70820       -2.66200        0.24320
H          4.09850       -1.33850        2.61950
H          3.67820       -3.13990        2.36210
H          5.35700        2.72270        0.40030
H          6.74850        3.44260       -0.43630
H          6.96320        2.57360        1.13480
H          8.16410        0.10010       -1.43810
H          8.67010        1.02300        0.06580
H          8.44620        1.86940       -1.47560
H          4.52090       -3.31750       -1.75980
H          4.61590       -5.59410       -0.82810
H          6.11490       -6.09070        1.07510
H          7.52940       -4.34440        2.03640
H          9.45980       -3.06800        1.31090
H         10.97040       -1.47760        2.40750
H         10.13200        0.72390        3.16640
H          7.77670        1.33430        2.81150
