20

N         -0.67900        1.19300        0.00100
C          0.67570        1.17950        0.14890
F          1.34490        2.34150        0.34320
C          1.37500       -0.03150        0.13630
C          0.67480       -1.22210       -0.06270
F          1.33720       -2.40540       -0.08920
C         -0.70930       -1.18850       -0.24200
C         -1.37720        0.04020       -0.19670
F         -2.71600        0.08870       -0.39850
Cu        -1.69140        3.03290        0.00550
Br        -1.33060        3.23760       -2.55110
C         -1.99090        2.86290        2.12770
C         -1.64050        1.84980        2.92300
C         -2.72790        4.91650        0.01010
O         -3.31510        5.98370        0.01270
H          2.44870       -0.04640        0.27590
H         -1.25740       -2.10480       -0.41900
H         -2.46300        3.72220        2.59350
H         -1.11250        0.97670        2.56850
H         -1.85470        1.92700        3.98790
