30

N         -0.65900       -1.22800       -0.05100
C         -1.39920       -0.07890        0.02550
O         -2.75340       -0.15400       -0.05980
C         -3.59900        0.93920       -0.13680
C         -0.73170        1.16700        0.06400
C          0.65950        1.20950        0.06630
C          1.38570        0.02570        0.00650
C          0.70410       -1.18810       -0.08720
Cu        -1.57560       -3.10440       -0.27260
Br        -1.91550       -3.12150        2.18730
C         -1.23450       -2.97720       -2.35760
C         -0.69930       -1.93140       -2.98300
N         -2.49230       -4.98070       -0.49410
C         -3.17180       -5.67940        0.44410
O         -3.64550       -6.81090       -0.03480
C         -3.29380       -6.88390       -1.29430
C         -2.56170       -5.76670       -1.59460
H         -4.64540        0.59730       -0.26400
H         -3.33960        1.57910       -1.01200
H         -3.52370        1.53800        0.79450
H         -1.27030        2.10510        0.06930
H          1.17250        2.16260        0.10020
H          2.46750        0.05010        0.02010
H          1.26280       -2.11290       -0.13750
H         -1.53400       -3.75820       -3.02500
H         -0.38280       -1.04210       -2.47000
H         -0.60250       -1.95860       -4.06470
H         -3.31240       -5.38010        1.46910
H         -3.54630       -7.68400       -1.97970
H         -2.16500       -5.59330       -2.57210
