38

N         -0.67900        1.19300        0.00100
C          0.70110        1.22160       -0.07290
C          1.48410        2.49400        0.13480
C          1.46480        0.04310       -0.09580
C          0.84290       -1.19640       -0.05230
C          1.64650       -2.46190       -0.05670
C         -0.54720       -1.23460        0.01520
C         -1.30820       -0.03740        0.06400
C         -2.80200       -0.18580        0.00550
Cu        -1.69140        3.03290        0.00550
Br        -0.29810        3.53550       -2.04500
C         -2.59770        2.46580        1.80140
C         -1.88620        1.83170        2.73100
N         -2.70380        4.87270        0.01000
C         -3.56250        5.31610        1.03560
F         -3.72080        4.74010        2.22710
C         -4.22860        6.53930        1.01440
C         -4.07630        7.40140       -0.03990
F         -4.75750        8.56900       -0.07720
C         -3.24610        7.02340       -1.06930
C         -2.55450        5.80370       -1.02320
F         -1.81550        5.60650       -2.11630
H          0.82090        3.32210        0.46830
H          2.06830        2.76560       -0.76360
H          2.20480        2.34610        0.97060
H          2.54230        0.09880       -0.09860
H          2.73820       -2.25950       -0.06350
H          1.39510       -3.07060       -0.94900
H          1.41440       -3.05280        0.85760
H         -1.03560       -2.20170        0.02570
H         -3.08260       -1.24160       -0.19650
H         -3.18960        0.40140       -0.85700
H         -3.29390        0.10970        0.94470
H         -3.57580        2.73360        2.12660
H         -0.83040        1.63820        2.58060
H         -2.32690        1.65670        3.70840
H         -4.86280        6.83570        1.85190
H         -3.13360        7.69200       -1.91550
