54

N         -1.47930       -0.19610        0.00860
C         -0.67650       -0.58010       -1.00870
C          0.70250       -0.68770       -0.82540
C          1.29410       -0.41280        0.43500
N          2.71260       -0.64140        0.68360
C          3.63360       -1.17280       -0.32220
C          3.33850       -0.46320        1.99220
C          0.41550        0.05430        1.45120
C         -0.96260        0.15100        1.21450
Cu        -3.47560       -0.20170       -0.28210
Br        -3.42460        2.30410       -0.93510
C         -3.51800       -2.28190        0.26000
C         -2.45310       -2.94470        0.72090
P         -5.96420       -0.16570       -0.49120
N         -7.16620        1.14120       -0.70880
C         -6.97430        2.10560        0.41140
C         -6.89560        1.92800       -1.94140
N         -6.27990       -0.97930       -2.09090
C         -5.69360       -2.32050       -2.24570
C         -7.71860       -1.11830       -2.45080
N         -6.65760       -0.78560        1.09520
C         -8.11500       -1.04600        1.05580
C         -6.02930       -1.94950        1.73380
H         -1.11470       -0.82530       -1.96440
H          1.24860       -1.01900       -1.68860
H          3.20680       -1.34890       -1.31670
H          4.03110       -2.15270        0.02250
H          4.48730       -0.47630       -0.46010
H          2.68020       -0.09640        2.78850
H          4.18290        0.25330        1.91420
H          3.73550       -1.44000        2.34610
H          0.73030        0.31790        2.44110
H         -1.62240        0.47430        2.01330
H         -4.38720       -2.87960        0.07210
H         -1.49400       -2.47640        0.87440
H         -2.52040       -4.01090        0.90940
H         -7.18090        1.64900        1.39810
H         -7.65470        2.97700        0.30610
H         -5.93300        2.50220        0.44000
H         -6.93320        1.33200       -2.86970
H         -5.90350        2.41150       -1.93490
H         -7.65610        2.72970       -2.05400
H         -4.60510       -2.32070       -2.08740
H         -5.82850       -2.66420       -3.30070
H         -6.20720       -3.07430       -1.60380
H         -8.31770       -0.19970       -2.34940
H         -8.23040       -1.90300       -1.86270
H         -7.80270       -1.39600       -3.52770
H         -8.69090       -0.12490        0.85730
H         -8.47740       -1.39520        2.05220
H         -8.37520       -1.84710        0.33650
H         -4.99910       -1.71260        2.03970
H         -6.17690       -2.87940        1.13720
H         -6.50410       -2.16890        2.71500
