69

P          1.04670       -0.08510       -0.02390
C         -0.01570        1.13810       -1.00710
C          0.20070        2.63790       -0.69100
C         -0.32360        3.34150       -1.93970
C          0.36860        2.55990       -3.01900
C          0.30250        1.10840       -2.52710
C          0.54790       -1.71040       -0.77930
C         -0.96470       -1.96090       -0.68180
C         -1.16530       -3.13560       -1.62190
C         -0.39820       -2.64760       -2.83720
C          0.90440       -2.07880       -2.24890
C          0.36140        0.22510        1.68930
C          0.92660       -0.62350        2.81590
C          0.22870       -0.02180        4.02970
C          0.46770        1.46020        3.79640
C          0.31890        1.64750        2.28000
Cu         3.50670       -0.08510       -0.02390
Br         3.50670       -2.15470        1.53330
C          3.50670        1.63290       -1.31650
C          3.64070        1.56800       -2.64320
N          5.60670       -0.08510       -0.02390
C          6.32560       -0.64930        0.99170
C          7.72260       -0.48020        1.08070
C          8.44870        0.18520        0.06380
N          9.87390        0.40320        0.12460
C         10.64000        0.32240        1.36130
C         10.67410        0.77910       -1.04970
C          7.68200        0.67340       -1.01070
C          6.29660        0.56800       -1.00570
H         -1.10500        0.98210       -0.87680
H          1.27890        2.86550       -0.59310
H         -0.31400        3.02820        0.19770
H         -0.08260        4.42820       -1.98270
H         -1.42060        3.19800       -2.02370
H          1.42420        2.90530       -2.97490
H          0.04470        2.72060       -4.06910
H          1.29400        0.70800       -2.76270
H         -0.47890        0.52210       -3.04840
H          1.00040       -2.51270       -0.15530
H         -1.54120       -1.11380       -1.10560
H         -1.32350       -2.13650        0.35370
H         -2.23600       -3.35270       -1.83150
H         -0.67890       -4.04360       -1.20340
H         -0.99090       -1.80490       -3.26470
H         -0.25520       -3.39040       -3.64980
H          1.29300       -1.31900       -2.93650
H          1.67870       -2.87330       -2.21010
H         -0.70890       -0.07870        1.61880
H          2.01300       -0.42290        2.91720
H          0.73810       -1.71160        2.69620
H          0.62650       -0.37820        5.00450
H         -0.86160       -0.24420        3.98200
H          1.53820        1.63950        4.04120
H         -0.14000        2.15200        4.41980
H          1.12410        2.32610        1.93110
H         -0.68970        2.06670        2.06390
H          3.45040        2.60660       -0.84480
H          3.73500        0.61320       -3.14590
H          3.68210        2.48480       -3.22500
H          5.84490       -1.11100        1.83230
H          8.20440       -0.87750        1.96140
H         10.02410        0.11000        2.24450
H         11.12860        1.30290        1.54510
H         11.42010       -0.45780        1.26390
H         10.11270        0.79680       -2.00430
H         11.48740        0.04510       -1.20500
H         11.12120        1.78680       -0.90110
H          8.10510        1.18630       -1.85520
H          5.81820        0.97750       -1.85690
