37

N         -0.32800       -1.08200        0.00300
C         -0.87750       -0.07310        0.70660
O         -0.22720        1.05410        0.51920
C          0.76770        0.80210       -0.30020
C          0.71690       -0.53020       -0.64120
Cu        -0.93010       -3.09380        0.01630
Br        -1.92830       -2.77940        2.38550
C         -0.10140       -3.35480       -1.95030
C         -0.11420       -4.44690       -2.72250
N         -1.53210       -5.10560        0.02970
C         -2.83730       -5.37060        0.31600
C         -3.32100       -6.68010        0.29450
C         -2.44040       -7.73590        0.07040
C         -1.07270       -7.46780       -0.09460
C         -0.14490       -8.51290       -0.15100
C          1.22180       -8.22990       -0.15200
C          1.69290       -6.90130       -0.11130
C          3.14930       -6.55980        0.01460
O          3.48560       -5.38480       -0.00240
C          4.24520       -7.57290        0.23820
C          0.74510       -5.85790       -0.13120
C         -0.62820       -6.12770       -0.12260
H         -1.74810       -0.16530        1.33850
H          1.50710        1.52370       -0.62110
H          1.42880       -1.04580       -1.26650
H          0.33760       -2.48540       -2.41360
H         -0.56690       -5.38000       -2.44300
H          0.33290       -4.40160       -3.71100
H         -3.52610       -4.55280        0.48110
H         -4.37260       -6.87750        0.45910
H         -2.80860       -8.75300        0.08520
H         -0.47210       -9.54320       -0.13230
H          1.89170       -9.07730       -0.14210
H          3.90270       -8.62010        0.27690
H          4.74150       -7.36030        1.21050
H          4.99910       -7.48570       -0.57010
H          1.07420       -4.82910       -0.06860
