49

N         -0.32800       -1.08200        0.00300
C          0.18890       -0.38180       -1.03320
O          0.33930        0.88490       -0.73270
C         -0.05710        1.04540        0.51700
C         -0.45700       -0.19070        1.00350
Cu        -0.93010       -3.09380        0.01630
Br        -1.18330       -3.00090        2.59220
C         -0.71980       -3.17090       -2.12200
C          0.49360       -3.35220       -2.64700
P         -1.63530       -5.45050        0.03200
O         -2.13790       -6.89750        0.77750
C         -3.42030       -6.59320        1.38380
C         -4.56520       -6.46350        0.35270
C         -3.80650       -7.68430        2.38920
O         -2.36840       -6.01270       -1.46770
C         -1.66390       -5.98620       -2.70820
C         -0.40880       -6.84450       -2.88240
C         -2.63360       -6.07000       -3.89010
O         -0.04560       -6.07910        0.04710
C          0.80430       -5.77450        1.11540
C          0.32390       -6.34830        2.45720
C          2.12940       -6.46320        0.74890
H          0.45080       -0.79400       -1.98500
H         -0.10780        2.00300        1.02700
H         -0.90640       -0.35960        1.95970
H         -1.59460       -3.01940       -2.75150
H          1.34330       -3.50120       -1.98940
H          0.63030       -3.38290       -3.72250
H         -3.36950       -5.65350        1.98650
H         -4.64310       -7.38420       -0.26440
H         -4.42530       -5.59080       -0.31210
H         -5.54010       -6.28870        0.85980
H         -3.89170       -8.66730        1.88150
H         -4.78920       -7.43840        2.84690
H         -3.05810       -7.74560        3.20510
H         -1.34930       -5.06100       -2.90440
H         -0.62170       -7.92630       -2.85710
H          0.37290       -6.57860       -2.15040
H          0.05110       -6.58270       -3.86480
H         -3.05390       -7.07970       -4.03420
H         -2.10600       -5.75730       -4.82510
H         -3.45910       -5.33320       -3.74460
H          0.97440       -4.68200        1.17870
H          0.16330       -7.44600        2.38080
H         -0.62060       -5.87150        2.78250
H          1.09330       -6.15730        3.23830
H          1.98150       -7.56490        0.67250
H          2.92190       -6.26700        1.49920
H          2.47950       -6.11210       -0.24500
