59

N          0.97830       -0.09370        0.02740
C          0.97540       -0.74290        1.37120
C          0.34190        1.22420        0.20520
C          0.14150       -0.86560       -0.89220
C         -0.97950       -1.62930       -0.42860
C         -1.80120       -2.33210       -1.30070
C         -1.56980       -2.27150       -2.66710
C         -0.52430       -1.48750       -3.16200
C          0.31440       -0.77600       -2.28800
Cu         3.07830       -0.09370        0.02740
Br         3.27390        2.08290        1.20740
C          2.85970       -1.87290       -1.00250
C          3.45230       -2.88670       -0.45100
P          5.53830       -0.09370        0.02740
N          6.60440        1.27130       -0.46610
C          6.26110        2.57660        0.12030
C          8.02400        1.11020       -0.76270
O          6.16260       -1.31820       -0.96250
C          6.35940       -2.56210       -0.45280
C          5.89210       -3.68010       -1.18060
C          5.82450       -4.94630       -0.58240
C          6.31180       -5.13430        0.70580
C          6.91880       -4.07370        1.37320
C          6.94720       -2.77480        0.81480
C          7.71630       -1.72170        1.53270
C          9.04970       -2.10860        1.79610
C          9.95560       -1.23790        2.37500
C          9.54250        0.03240        2.75340
C          8.22140        0.44350        2.53410
C          7.29180       -0.39320        1.89190
O          6.06540        0.14010        1.58930
H          2.02640       -0.86590        1.70560
H          0.47840       -0.19080        2.19810
H          0.65250       -1.80130        1.40080
H         -0.77150        1.15920        0.11010
H          0.70230        1.93340       -0.56310
H          0.49960        1.68850        1.20410
H         -1.25410       -1.69910        0.61560
H         -2.62490       -2.91670       -0.90540
H         -2.21710       -2.82030       -3.33780
H         -0.36820       -1.42970       -4.22900
H          1.11160       -0.16890       -2.69420
H          2.11010       -2.21050       -1.69410
H          4.05230       -2.71680        0.43100
H          3.25610       -3.89310       -0.80640
H          5.23660        2.84910       -0.16780
H          6.85460        3.40080       -0.32120
H          6.39600        2.58340        1.22340
H          8.20610        0.18750       -1.34000
H          8.64180        1.17340        0.14540
H          8.33720        1.96390       -1.40830
H          5.45000       -3.54880       -2.16130
H          5.35280       -5.77370       -1.10050
H          6.23770       -6.10580        1.18160
H          7.34390       -4.25840        2.35280
H          9.41470       -3.08840        1.49570
H         10.98420       -1.55230        2.51640
H         10.26120        0.70960        3.19380
H          7.94060        1.45020        2.80710
