96

P          1.09460        0.03160        0.00740
C          0.04690        1.49160        0.48080
C          0.66580        0.12740       -1.77070
C         -0.02320       -1.10540        1.12840
C         -1.52750       -1.10040        0.71160
C          0.33330       -2.55120        0.95110
C          0.07630       -0.80430        2.64600
Cu         3.55460        0.03160        0.00740
Br         3.49210        1.32840        2.17410
C          3.63030       -1.05660       -1.87870
C          4.69300       -1.02930       -2.71180
C          5.70460        0.03160        0.00740
N          6.47720       -1.12260       -0.16650
C          6.33470       -2.72500       -0.20790
C          7.29940       -3.66250       -0.93100
C          8.42870       -3.47920       -1.96960
C          7.86130       -3.66780       -3.38150
C          9.37390       -2.34760       -1.89570
C          7.18720       -5.09890       -0.86820
C          6.31960       -5.76130       -0.08640
C          5.43700       -5.06100        0.60070
C          5.31500       -3.64780        0.50990
C          3.90810       -3.41480        1.09910
C          3.67180       -2.00370        1.06000
C          2.89460       -4.24730        0.16430
C          7.77070       -0.61150        0.19860
C          7.72990        0.86870       -0.02690
N          6.42700        1.18540        0.44320
C          6.01800        2.54730        0.77750
C          4.96660        3.32800        0.10400
C          4.11920        2.91500       -1.10680
C          2.63900        2.96310       -0.73880
C          4.26580        3.87630       -2.30770
C          4.65390        4.60480        0.62780
C          5.31620        5.15420        1.69530
C          6.35620        4.47040        2.28660
C          6.73410        3.19060        1.85240
C          7.91490        2.52950        2.57290
C          9.22560        3.18160        2.08940
C          7.84400        2.56260        4.09750
H         -1.02690        1.39710        0.30260
H          0.29100        2.40530       -0.07250
H          0.23560        1.73120        1.54850
H         -0.43190        0.27650       -1.86260
H          0.88410       -0.81460       -2.29430
H          1.16080        0.95670       -2.29380
H         -1.63350       -1.34700       -0.36780
H         -2.09170       -0.18930        0.95120
H         -2.09240       -1.87860        1.27660
H          0.40260       -2.71860       -0.14770
H         -0.39540       -3.27080        1.37460
H          1.19730       -2.80110        1.58360
H         -0.36120        0.17200        2.92210
H          1.13040       -0.84630        2.99440
H         -0.49730       -1.56610        3.22420
H          2.81290       -1.69970       -2.16120
H          5.57670       -0.44490       -2.50730
H          4.68440       -1.61660       -3.62080
H          9.17550       -4.30610       -1.82430
H          7.13960       -2.86090       -3.60780
H          7.33570       -4.64500       -3.47490
H          8.68410       -3.66850       -4.12510
H          8.83860       -1.43690       -2.21830
H         10.22500       -2.49900       -2.59360
H          9.83320       -2.38480       -0.87420
H          7.81440       -5.79580       -1.39360
H          6.27350       -6.85200       -0.07790
H          4.73840       -5.69850        1.11130
H          3.74460       -3.71870        2.14190
H          4.10870       -1.78120        0.15160
H          4.16220       -1.43240        1.86520
H          2.66930       -1.73700        0.86210
H          3.17240       -4.21910       -0.91170
H          1.83550       -4.12570        0.15570
H          2.82160       -5.29320        0.51740
H          8.64810       -0.88890       -0.29000
H          7.93830       -0.83400        1.27390
H          7.76730        1.09460       -1.12790
H          8.60040        1.33650        0.40730
H          4.37830        1.89580       -1.45630
H          2.27180        3.93220       -0.36180
H          2.47520        2.23910        0.03230
H          2.00110        2.73970       -1.61930
H          3.96260        4.91360       -2.04940
H          3.58590        3.56040       -3.13660
H          5.29750        3.88440       -2.70590
H          3.88370        5.21980        0.19530
H          5.02620        6.12060        2.06420
H          6.85710        4.95470        3.10660
H          7.92160        1.45160        2.36320
H          9.28510        4.23870        2.40620
H          9.31090        3.20110        0.98370
H         10.09910        2.62140        2.48570
H          7.97520        3.59120        4.48730
H          8.67710        1.94250        4.50320
H          6.88480        2.13730        4.45480
