93

P          0.97060       -0.02410       -0.09250
C         -0.27850        1.27650        0.44260
C         -0.13960        1.66540        1.92520
C         -1.08350        2.85150        2.01490
C         -0.68050        3.68030        0.80650
C         -0.15500        2.66080       -0.21850
C          0.71080       -0.07080       -1.93470
C         -0.73090       -0.24670       -2.43490
C         -0.58070        0.06930       -3.91570
C          0.20640        1.36310       -3.84800
C          1.27070        1.10560       -2.76740
C          0.27190       -1.38180        1.03690
C         -1.23190       -1.67250        0.80730
C         -1.45620       -2.99060        1.52250
C         -0.28720       -3.79130        1.00680
C          0.88670       -2.80380        1.01520
Cu         3.43060       -0.02410       -0.09250
Br         3.43060       -2.39370       -1.13800
C          3.43060        1.94300        0.77540
C          3.58340        3.05910        0.07520
P          5.89060       -0.02410       -0.09250
C          6.65480       -0.16070        1.58740
C          6.12020       -1.42590        2.27910
C          7.02480       -1.54860        3.48650
C          8.38270       -1.37550        2.82910
C          8.18270       -0.22680        1.82190
C          6.44590       -1.59340       -0.98280
C          6.16820       -1.57570       -2.50120
C          6.77520       -2.90690       -2.90260
C          8.14720       -2.83950       -2.26400
C          7.93940       -1.97680       -0.99550
C          6.50900        1.69150       -0.54650
C          8.05700        1.82970       -0.63300
C          8.29310        2.89090       -1.69640
C          7.38460        2.38250       -2.79710
C          6.10160        2.06530       -2.01880
H         -1.31800        0.94340        0.26980
H          0.89950        2.00890        2.14100
H         -0.41660        0.88090        2.65550
H         -1.05930        3.41740        2.97050
H         -2.11910        2.47090        1.86070
H          0.18130        4.32170        1.11540
H         -1.49110        4.34990        0.44900
H          0.91450        2.91040       -0.35210
H         -0.67810        2.71200       -1.19450
H          1.22880       -0.97840       -2.31320
H         -1.40990        0.50730       -1.98150
H         -1.15400       -1.25760       -2.28460
H         -1.55080        0.16520       -4.45140
H          0.03070       -0.71960       -4.41010
H         -0.50600        2.12750       -3.46040
H          0.60240        1.74450       -4.81200
H          1.46830        2.05350       -2.24250
H          2.22930        0.76890       -3.21570
H          0.36340       -1.06660        2.09680
H         -1.41690       -1.85740       -0.26640
H         -1.94080       -0.89830        1.15790
H         -2.43650       -3.46710        1.28200
H         -1.36830       -2.84630        2.61850
H         -0.52340       -4.02200       -0.06170
H         -0.08930       -4.76170        1.50780
H          1.43450       -3.07850        0.12850
H          1.51540       -2.92510        1.92540
H          3.30910        2.00940        1.85100
H          3.69840        3.01580       -0.99300
H          3.59920        4.01900        0.58290
H          6.27520        0.68500        2.20530
H          6.29210       -2.32680        1.65010
H          5.03510       -1.38400        2.51660
H          6.91160       -2.51780        4.02240
H          6.82090       -0.71340        4.18960
H          8.56260       -2.31070        2.25180
H          9.23990       -1.24990        3.52330
H          8.83020       -0.39530        0.94570
H          8.47940        0.73380        2.29590
H          5.94020       -2.46290       -0.51950
H          6.71780       -0.74630       -2.98880
H          5.12110       -1.48290       -2.82910
H          6.81180       -3.11500       -4.00420
H          6.19370       -3.73250       -2.43090
H          8.79170       -2.26150       -2.96720
H          8.62900       -3.82920       -2.10580
H          8.58400       -1.10450       -1.17210
H          8.28010       -2.47010       -0.06860
H          6.14680        2.47700        0.13320
H          8.50440        0.92640       -1.06470
H          8.56390        2.03160        0.32850
H          9.35710        2.97730       -2.02730
H          7.94050        3.87930       -1.33390
H          7.82040        1.44170       -3.20530
H          7.24220        3.07980       -3.65480
H          5.45990        1.33930       -2.56370
H          5.57890        3.03930       -1.98250
