75

P          1.09290       -0.03500       -0.01220
C          0.20490       -0.67610        1.43850
C         -0.76220        0.02420        2.17360
C         -1.17910       -0.47230        3.42430
C         -0.60670       -1.63230        3.95720
C          0.33950       -2.33950        3.22230
C          0.71590       -1.88270        1.96120
C          0.92680        1.75680        0.07740
C          1.48990        2.44900        1.15870
C          1.38710        3.84030        1.23910
C          0.71960        4.55100        0.23860
C          0.15200        3.86960       -0.84460
C          0.25440        2.47510       -0.92670
C          0.39110       -1.03860       -1.32900
C          1.19180       -1.85620       -2.13210
C          0.58870       -2.66590       -3.10140
C         -0.79770       -2.65950       -3.25720
C         -1.57600       -1.82890       -2.44400
O         -2.78320       -1.82150       -2.56250
N         -0.96240       -1.03960       -1.49860
Cu         3.55290       -0.03500       -0.01220
Br         3.55290        0.83830       -2.45050
C          3.55290       -0.75990        2.01190
C          4.41030       -1.30880        2.87860
P          6.01290       -0.03500       -0.01220
C          6.71460       -0.15070       -1.67470
C          7.52090        0.78260       -2.34280
C          7.86470        0.56530       -3.68900
C          7.39230       -0.56300       -4.37510
C          6.59410       -1.49180       -3.71970
C          6.26040       -1.28470       -2.38030
C          6.38120        1.66970        0.51630
C          7.08970        1.85550        1.71590
C          7.44710        3.12750        2.15870
C          7.08400        4.24740        1.41590
C          6.35010        4.09310        0.23690
C          5.99180        2.80630       -0.21730
C          6.75320       -1.48890        0.78310
C          7.99970       -1.39890        1.42640
C          8.54810       -2.51780        2.04460
C          7.87740       -3.73850        2.00220
C          6.66020       -3.82450        1.31910
O          6.07320       -4.88980        1.26160
N          6.12890       -2.70540        0.71700
H         -1.16740        0.95670        1.80910
H         -1.91470        0.06690        4.00650
H         -0.88060       -1.98150        4.94590
H          0.81560       -3.22020        3.64180
H          1.49760       -2.42220        1.43670
H          2.01220        1.91070        1.93970
H          1.82600        4.36860        2.07680
H          0.64380        5.63090        0.30220
H         -0.36270        4.42660       -1.61660
H         -0.18680        1.96050       -1.77240
H          2.26430       -1.88120       -2.00340
H          1.19420       -3.31100       -3.72300
H         -1.26890       -3.29580       -3.99820
H         -1.56190       -0.43860       -0.88890
H          2.60850       -0.57690        2.47410
H          5.41950       -1.57730        2.71640
H          4.05190       -1.54000        3.87890
H          7.87740        1.66990       -1.84030
H          8.47580        1.28320       -4.21830
H          7.63320       -0.71960       -5.42200
H          6.21070       -2.36110       -4.24290
H          5.60750       -2.01190       -1.91030
H          7.37450        1.02330        2.33430
H          8.00840        3.24050        3.07890
H          7.37160        5.23080        1.76320
H          6.06820        4.97350       -0.32690
H          5.43760        2.71650       -1.13580
H          8.55610       -0.47820        1.45500
H          9.50010       -2.44080        2.55560
H          8.30810       -4.60750        2.48530
H          5.21350       -2.79300        0.21780
