70

P          1.03600       -0.09200       -0.01580
C         -0.22230       -0.93890        1.30030
C         -0.05080       -2.47850        1.69010
C          1.14140       -2.83680        2.56130
C          1.21700       -1.95990        3.83250
C          0.84800       -0.45550        3.62660
C         -0.40200       -0.35400        2.75870
C          0.36450        1.73360        0.11860
C          0.34610        2.64020        1.39180
C          1.69670        3.19090        1.81920
C          2.24910        4.05710        0.69500
C          2.32380        3.22010       -0.55260
C          0.94070        2.64380       -0.98650
C          0.38720       -1.16510       -1.53680
C          1.02450       -0.86960       -2.91010
C          2.29430       -1.73080       -3.18200
C          1.96710       -3.22460       -3.17460
C          1.33630       -3.62290       -1.82750
C          0.10300       -2.71610       -1.59900
Cu         3.49600       -0.09200       -0.01580
Br         3.49600        1.17320       -2.27570
C          3.49600       -1.14220        1.86030
C          4.27540       -2.22640        1.97270
N          5.59600       -0.09200       -0.01580
C          6.33430        0.08910        1.13440
Cl         5.62120        0.61480        2.65600
C          7.73130        0.14750        1.07740
C          8.37970       -0.05920       -0.13330
C          7.62700       -0.26260       -1.28730
C          6.23590       -0.21830       -1.21530
H         -1.22220       -0.84330        0.82720
H          0.02550       -3.21390        0.91080
H         -0.93800       -2.80220        2.26890
H          1.95880       -2.81100        1.86110
H          1.13980       -3.90690        2.86760
H          2.20140       -2.08900        4.35160
H          0.45960       -2.37200        4.52360
H          1.55730        0.23820        3.15620
H          0.70400       -0.02590        4.64370
H         -0.85050        0.61420        2.79900
H         -1.18650       -0.91360        3.31220
H         -0.71010        1.56760       -0.13770
H         -0.12790        2.28780        2.28040
H         -0.29590        3.52830        1.15400
H          2.37530        2.34370        2.06100
H          1.59170        3.82920        2.72070
H          3.26790        4.40100        0.95610
H          1.60420        4.94190        0.50750
H          2.98900        2.40470       -0.23170
H          2.74890        3.81180       -1.38290
H          0.96920        2.10280       -1.94900
H          0.26090        3.50460       -1.15880
H         -0.64490       -0.76420       -1.58380
H          1.18300        0.20120       -3.04450
H          0.29240       -1.14620       -3.70130
H          3.07340       -1.54960       -2.41920
H          2.69190       -1.48100       -4.18750
H          2.86390       -3.84610       -3.37860
H          1.23310       -3.44460       -3.99020
H          2.06270       -3.53760       -0.99890
H          1.01910       -4.69200       -1.90240
H         -0.61770       -3.10590       -0.87640
H         -0.54100       -2.90610       -2.49030
H          3.18150       -0.74210        2.77490
H          4.78460       -2.63560        1.10930
H          4.43190       -2.67950        2.94880
H          8.30740        0.39590        1.96060
H          9.46390       -0.03310       -0.18210
H          8.12750       -0.44470       -2.22990
H          5.67040       -0.40280       -2.11690
