62

P          1.07680        0.04130       -0.04900
C          0.01750       -1.43890       -0.27480
C         -1.03770       -1.81360        0.58290
C         -1.58100       -3.10390        0.51450
C         -1.07620       -4.03830       -0.38890
C         -0.05800       -3.67280       -1.27090
C          0.46640       -2.37770       -1.24030
C          0.59710        0.37060        1.66000
C          0.96230       -0.51050        2.69210
C          0.42010       -0.35310        3.97340
C         -0.48810        0.68020        4.22900
C         -0.83900        1.56840        3.21310
C         -0.29690        1.41840        1.93300
C          0.50480        1.10750       -1.39230
C         -0.87040        1.38430       -1.50240
C         -1.35610        2.17540       -2.54270
C         -0.47060        2.70110       -3.48860
C          0.89640        2.42320       -3.39830
C          1.38140        1.62110       -2.35770
Cu         3.53680        0.04130       -0.04900
Br         3.49030        2.52990       -0.09130
C          3.77090       -2.07020       -0.06520
C          2.92030       -3.02690        0.21540
P          5.99680        0.04130       -0.04900
N          6.96140        0.74760        1.28130
C          8.41140        0.61200        1.16840
C          8.76240        0.13180       -0.22740
C         10.29320        0.10500       -0.39750
C          8.22430       -1.33580       -0.36460
N          6.80850       -1.50780        0.00140
N          6.60410        1.37880       -1.01050
C          8.06440        1.12280       -1.25550
H         -1.42170       -1.14720        1.33900
H         -2.36830       -3.39580        1.19800
H         -1.45010       -5.05550       -0.39210
H          0.35810       -4.40720       -1.94890
H          1.30080       -2.14100       -1.88370
H          1.62440       -1.34180        2.49670
H          0.67930       -1.04890        4.76140
H         -0.92770        0.78220        5.21460
H         -1.55670        2.35510        3.40860
H         -0.62020        2.09120        1.15290
H         -1.56740        0.97960       -0.77450
H         -2.41420        2.38620       -2.61520
H         -0.84780        3.31840       -4.29250
H          1.57580        2.82370       -4.13590
H          2.43670        1.39550       -2.32270
H          4.75290       -2.45000       -0.30270
H          1.94730       -2.82340        0.58890
H          3.24280       -4.06440        0.13830
H          6.63500        0.34850        2.19270
H          8.79940       -0.09620        1.93900
H          8.86180        1.60700        1.37470
H         10.75320       -0.56230        0.36850
H         10.72260        1.11980       -0.25700
H         10.57110       -0.27510       -1.40120
H          8.81990       -2.01700        0.28860
H          8.37950       -1.68660       -1.40530
H          6.71580       -1.88110        0.97480
H          6.45860        2.28630       -0.49940
H          8.59410        2.10090       -1.23400
H          8.19700        0.71120       -2.27840
