22

P          0.94920        0.05880        0.06290
F         -0.71740       -0.09140        0.02250
F          0.93960       -0.27450        1.70350
F          0.81280        1.60750       -0.55670
Ni         3.40920        0.05880        0.06290
Br         3.14570        2.42550        0.83470
C          3.30620       -1.90840       -0.60620
C          2.79450       -2.88950        0.13090
N          5.50920        0.05880        0.06290
C          6.27660        1.19300        0.26970
F          5.75590        2.41310        0.44860
C          7.67350        1.14710        0.23100
C          8.33010       -0.05360        0.01240
C          7.57130       -1.20060       -0.18400
C          6.17770       -1.12420       -0.16620
H          3.68720       -2.12950       -1.59900
H          2.40520       -2.69070        1.12110
H          2.76530       -3.90100       -0.26700
H          8.24770        2.05620        0.37030
H          9.40710       -0.09140       -0.00840
H          8.06740       -2.14390       -0.34530
H          5.66640       -2.05360       -0.31330
