24

P          1.06890       -0.03780        0.06180
F         -0.60350        0.00890        0.11320
F          1.06990        1.25760       -0.99850
F          0.99610       -1.62140       -0.47450
Ni         3.52890       -0.03780        0.06180
Br         3.42800       -1.33040       -2.07130
C          3.48900        0.97320        1.86000
C          3.11200        2.25410        1.89230
P          5.98890       -0.03780        0.06180
C          7.58020       -0.81090       -0.42360
C          5.99270        0.55530       -1.68290
C          6.53670        0.80940        1.57910
H          3.78050        0.46700        2.77300
H          2.83060        2.75430        0.97380
H          3.10270        2.79650        2.82980
H          7.47690       -1.44540       -1.34450
H          7.82080       -1.57030        0.37650
H          8.41090       -0.10400       -0.50320
H          5.79480       -0.24480       -2.41820
H          6.97420        1.00800       -1.96300
H          5.24970        1.36820       -1.79070
H          6.37320        0.14110        2.44970
H          5.99560        1.76480        1.71580
H          7.62040        1.04120        1.51450
