40

P          1.08640        0.01470        0.04820
F         -0.55180        0.34390       -0.05140
F          1.05960       -0.58530       -1.51530
F          0.81760       -0.84310        1.46460
Ni         3.54640        0.01470        0.04820
Br         2.85730       -2.38100        0.45330
C          3.39090        1.94720       -0.69500
C          3.06380        3.02040        0.02240
C          5.69640        0.01470        0.04820
N          6.47760       -1.03650        0.10300
C          6.10040       -2.43550        0.06630
C          6.00080       -2.89320       -1.39990
C          6.99430       -3.36360        0.88740
C          7.87890       -0.67630        0.01530
C          7.86420        0.77700       -0.39930
N          6.50970        1.18800       -0.08810
C          6.20180        2.52550        0.41150
C          7.20330        3.01520        1.47220
C          6.17300        3.53620       -0.74780
H          3.54560        2.05530       -1.76500
H          2.89610        2.94390        1.08820
H          2.99790        3.98710       -0.47020
H          5.19860       -2.54650        0.59310
H          6.99890       -2.84090       -1.89030
H          5.30650       -2.23590       -1.96760
H          5.62910       -3.93750       -1.47290
H          8.03190       -3.39090        0.50620
H          6.57740       -4.39870        0.84090
H          6.98430       -3.04650        1.95150
H          8.45160       -1.27090       -0.73050
H          8.31770       -0.79880        1.03630
H          7.97600        0.84330       -1.50370
H          8.69130        1.32310        0.09290
H          5.24840        2.47200        0.94370
H          8.20850        3.20870        1.03930
H          7.29400        2.27700        2.29580
H          6.85220        3.97980        1.89700
H          7.17890        3.64100       -1.20550
H          5.84110        4.53040       -0.37500
H          5.48400        3.23000       -1.55920
