51

P          0.92420       -0.04580        0.04650
Cl        -0.65150        0.73440       -1.05230
Cl         0.83040       -1.77800       -1.09720
Cl        -0.38950       -0.05850        1.65150
Ni         3.38420       -0.04580        0.04650
Br         3.39180       -0.40570       -2.41890
C          3.15430        0.49930        2.02100
C          3.04050        1.78860        2.35110
P          5.84420       -0.04580        0.04650
C          6.76690       -0.33260        1.62310
C          7.86280       -1.20860        1.78340
C          8.36370       -1.49440        3.07560
C          7.75630       -0.95410        4.20220
C          6.66630       -0.11770        4.07570
C          6.19450        0.18070        2.80500
C          6.27370       -1.20080       -1.28370
C          6.50980       -0.76490       -2.60110
C          6.83300       -1.68450       -3.60530
C          6.93830       -3.03650       -3.29600
C          6.71810       -3.48180       -1.99140
C          6.38080       -2.57000       -0.98290
C          6.42880        1.69860       -0.39820
C          6.18020        2.90800        0.54520
C          7.20030        3.07940        1.69700
C          8.64430        3.07450        1.18790
C          8.92510        1.82220        0.35450
C          7.93480        1.73710       -0.82190
H          3.12310       -0.26200        2.79160
H          3.06680        2.55550        1.58620
H          2.93570        2.08410        3.39000
H          8.32810       -1.67470        0.92700
H          9.21250       -2.15460        3.20470
H          8.12070       -1.19060        5.21090
H          6.17510        0.29690        4.94910
H          5.36630        0.83550        2.76140
H          6.42360        0.27650       -2.86900
H          7.00020       -1.35680       -4.62140
H          7.18730       -3.75810       -4.07080
H          6.80850       -4.53640       -1.74760
H          6.21490       -2.92710        0.02420
H          5.83720        1.89700       -1.31630
H          5.14340        2.91800        0.91150
H          6.30900        3.82190       -0.07940
H          7.11750        2.30300        2.44770
H          7.00270        4.03170        2.23370
H          9.34610        3.11770        2.05170
H          8.81500        3.97130        0.55720
H          8.87940        0.93050        0.99050
H          9.96580        1.87220       -0.03330
H          8.20410        0.87910       -1.46580
H          8.09880        2.65410       -1.43080
