20

P          0.97360        0.09550        0.01340
Cl        -0.69050       -0.90980        0.73420
Cl         1.06290        1.11920        1.81520
Cl        -0.25220        0.84680       -1.48190
Ni         3.43360        0.09550        0.01340
Br         3.32320        2.10040       -1.44520
C          3.43730       -1.49450        1.34680
C          2.90000       -2.67510        1.06030
C          5.58360        0.09550        0.01340
N          6.33760        1.02230       -0.61060
H          6.02360        1.85820       -1.15590
C          7.61660        0.67200       -0.38240
Cl         9.01410        1.55950       -0.95340
C          7.62280       -0.47820        0.37590
Cl         9.03200       -1.36560        0.93210
N          6.35460       -0.83050        0.62970
H          3.88920       -1.33540        2.32220
H          2.43730       -2.84930        0.09780
H          2.92270       -3.46750        1.80320
H          6.04540       -1.66520        1.17080
