71

P          1.05510       -0.05990        0.05810
C          0.19400       -1.18810        1.21520
C         -0.11230       -2.50200        0.79870
C         -0.58280       -3.46500        1.69380
C         -0.88520       -4.85420        1.20860
C         -0.73290       -3.13080        3.04340
C         -0.40300       -1.84660        3.48700
C          0.06880       -0.88380        2.58510
C          0.60290        1.55820        0.72400
C          1.55650        2.54900        0.96640
C          1.16440        3.78820        1.51940
C          2.16220        4.87490        1.77300
C         -0.18530        4.00760        1.84340
C         -1.13240        3.01800        1.60560
C         -0.74100        1.80800        1.04380
C          0.36190       -0.70650       -1.48190
C         -1.04310       -0.75030       -1.60390
C         -1.65860       -1.44120       -2.65530
C         -3.15480       -1.55100       -2.72530
C         -0.85230       -2.06720       -3.61330
C          0.54480       -1.99880       -3.51740
C          1.15310       -1.32130       -2.45460
Ni         3.51510       -0.05990        0.05810
Br         3.51510        1.62730       -1.90700
C          3.51510       -1.46050        1.68930
C          4.39270       -1.95920        2.56080
P          5.97510       -0.05990        0.05810
N          6.97460        0.36550        1.47570
C          8.41400        0.32640        1.30910
C          8.74650       -0.18930       -0.07520
C         10.27870       -0.25990       -0.20670
C          8.09410       -1.61970       -0.21300
N          6.64430       -1.68870        0.14390
N          6.70240        1.10180       -1.02460
C          8.15890        0.81740       -1.13730
H          0.04860       -2.81390       -0.22110
H         -0.69520       -4.95670        0.11710
H         -1.95110       -5.09300        1.39700
H         -0.23970       -5.58760        1.73610
H         -1.07650       -3.87310        3.75320
H         -0.48530       -1.60740        4.53960
H          0.36850        0.08080        2.97140
H          2.59490        2.37050        0.73560
H          3.17770        4.57580        1.44350
H          2.18770        5.11120        2.85590
H          1.86050        5.78260        1.20890
H         -0.49930        4.94790        2.28200
H         -2.17130        3.18260        1.86680
H         -1.50270        1.05050        0.88970
H         -1.66660       -0.31100       -0.84160
H         -3.65170       -0.99390       -1.89970
H         -3.45230       -2.62000       -2.63430
H         -3.52850       -1.15400       -3.68920
H         -1.31190       -2.62380       -4.42020
H          1.15170       -2.50670       -4.25110
H          2.23110       -1.32870       -2.35420
H          2.52710       -1.84690        1.86110
H          5.41500       -1.70440        2.64910
H          4.03300       -2.68040        3.29260
H          6.67510       -0.08390        2.36520
H          8.85490       -0.33240        2.09310
H          8.81600        1.35010        1.47260
H         10.70630       -0.92850        0.57340
H         10.72520        0.74970       -0.05490
H         10.57750       -0.63540       -1.20430
H          8.64510       -2.32860        0.44720
H          8.23850       -1.97770       -1.25290
H          6.55200       -2.14690        1.06480
H          6.55260        2.04550       -0.59750
H          8.70670        1.78560       -1.06400
H          8.36300        0.41560       -2.14940
