70

P          1.04010        0.02640        0.08770
C          0.42920        0.92570       -1.37760
C         -0.90400        1.10880       -1.78880
C         -1.18260        1.76510       -3.00040
C         -0.13670        2.28060       -3.79800
C         -0.38960        2.94740       -5.11700
C          1.17780        2.16200       -3.34480
C          1.44700        1.50390       -2.15430
C          0.68740       -1.66030       -0.51800
C          1.54140       -2.69580       -0.09740
C          1.22900       -4.03620       -0.36080
C          0.05520       -4.36810       -1.05230
C         -0.31900       -5.79610       -1.32840
C         -0.80320       -3.34780       -1.46380
C         -0.49840       -2.01630       -1.18760
C          0.32170        0.69870        1.59270
C          0.05560       -0.21230        2.62490
C         -0.45220        0.22210        3.84870
C         -0.70610        1.58230        4.06020
C         -1.23290        2.05560        5.38600
C         -0.45460        2.49980        3.02360
C          0.06210        2.06080        1.79110
Ni         3.50010        0.02640        0.08770
Br         3.50010       -1.04430       -2.27060
C          3.50010        0.91530        2.04540
C          4.55860        1.16690        2.82110
N          5.60010        0.02640        0.08770
C          6.25460        1.22630        0.17120
C          5.48770        2.51590        0.12140
C          7.65320        1.27220        0.15580
C          8.38400        0.08470        0.07650
C          9.88400        0.10090        0.08100
C          7.70110       -1.13070       -0.00740
C          6.29770       -1.14710       -0.02360
C          5.58280       -2.46890        0.04450
H         -1.72630        0.73280       -1.19650
H         -2.20840        1.87100       -3.32970
H         -1.47090        2.96330       -5.37100
H          0.14720        2.39500       -5.91860
H         -0.01030        3.99220       -5.09580
H          1.99890        2.56800       -3.92680
H          2.48150        1.43570       -1.84160
H          2.42670       -2.46740        0.48110
H          1.89390       -4.81340       -0.00950
H          0.43440       -6.50110       -0.92420
H         -0.40160       -5.94880       -2.42610
H         -1.30050       -6.02120       -0.86070
H         -1.72930       -3.58620       -1.97770
H         -1.23830       -1.30930       -1.48560
H          0.25710       -1.26840        2.48970
H         -0.63660       -0.50480        4.63040
H         -1.36270        1.21140        6.09820
H         -2.21570        2.55090        5.25030
H         -0.51690        2.77540        5.83540
H         -0.64810        3.55490        3.17620
H          0.26570        2.77910        1.00820
H          2.55780        1.18300        2.48300
H          5.57220        0.93630        2.54270
H          4.40330        1.62380        3.79460
H          4.39750        2.33640        0.03230
H          5.79050        3.07610       -0.79080
H          5.69940        3.13930        1.01240
H          8.16360        2.22780        0.18800
H         10.28120        1.13750        0.12350
H         10.26640       -0.38370       -0.84170
H         10.25930       -0.45470        0.96620
H          8.26160       -2.05800       -0.03890
H          6.29610       -3.31780        0.10600
H          4.93290       -2.65860       -0.81620
H          4.97020       -2.48850        0.97310
