76

P          1.04680        0.08400        0.02740
C          0.33280        0.63550       -1.54950
C         -1.01060        0.57000       -1.94490
C         -1.37580        0.87610       -3.26790
C         -0.39960        1.23920       -4.22130
O         -0.68820        1.48490       -5.52440
C         -1.92040        1.32060       -6.11820
C          0.92550        1.30700       -3.82360
C          1.29460        1.00550       -2.51340
C          0.57430       -1.64680       -0.05860
C          0.97430       -2.45330       -1.13340
C          0.62500       -3.80770       -1.16290
C         -0.14050       -4.36680       -0.11970
O         -0.48860       -5.67670       -0.08920
C         -0.14070       -6.62060       -1.03260
C         -0.55360       -3.54890        0.93910
C         -0.20180       -2.19770        0.96730
C          0.31440        1.22730        1.22970
C         -1.08430        1.24010        1.35810
C         -1.71620        1.93750        2.37860
C         -0.96160        2.63910        3.32810
O         -1.54680        3.28230        4.37480
C         -2.90370        3.28460        4.65190
C          0.43970        2.63930        3.20960
C          1.07790        1.93540        2.16850
Ni         3.50680        0.08400        0.02740
Br         3.50680        2.63940       -0.39470
C          3.50680       -2.03720        0.37780
C          4.39710       -2.86320       -0.16290
C          5.65680        0.08400        0.02740
N          6.38070       -0.66300        0.81420
C          5.90340       -1.32200        2.03530
C          6.38310       -2.76610        2.24930
C          7.78690       -0.39780        0.62590
C          7.82040        0.37810       -0.67340
N          6.48980        0.92710       -0.76980
C          6.08100        1.59650       -1.99380
C          6.48100        3.07110       -1.97960
H         -1.78770        0.23350       -1.29040
H         -2.41560        0.79600       -3.54800
H         -1.83690        1.56470       -7.19710
H         -2.66450        1.99790       -5.65190
H         -2.24980        0.26280       -6.02370
H          1.70650        1.56100       -4.54650
H          2.34540        1.01220       -2.27180
H          1.57340       -2.03880       -1.93490
H          0.96350       -4.40910       -1.99540
H         -0.54820       -7.60570       -0.72710
H          0.96580       -6.70120       -1.10220
H         -0.56670       -6.34670       -2.02060
H         -1.14580       -3.96110        1.74560
H         -0.52100       -1.58690        1.80310
H         -1.71580        0.66320        0.71670
H         -2.79710        1.89060        2.43670
H         -3.09400        3.86140        5.57890
H         -3.27080        2.24490        4.80950
H         -3.46810        3.75430        3.81850
H          1.03750        3.15450        3.95020
H          2.15750        1.89910        2.13670
H          2.68650       -2.49620        0.90950
H          5.20780       -2.50300       -0.78210
H          4.28730       -3.93360       -0.00420
H          4.81760       -1.20570        2.18990
H          6.33210       -0.75060        2.88740
H          5.98300       -3.50000        1.53840
H          6.04750       -3.09670        3.25650
H          7.48690       -2.83070        2.21100
H          8.42330       -1.30750        0.58730
H          8.11260        0.26320        1.45970
H          7.92010       -0.36520       -1.49930
H          8.64310        1.11930       -0.74390
H          5.00630        1.43870       -2.19910
H          6.60410        1.13130       -2.85850
H          6.01310        3.61610       -1.13750
H          6.17030        3.54630       -2.93440
H          7.58370        3.16470       -1.88580
