72

P          0.94240       -0.05200       -0.06310
C          0.08890        1.30070        1.05560
C         -1.45280        1.35180        1.03430
C          0.50830        1.11690        2.53790
C          0.58060        2.73570        0.72960
C          0.51080        0.37650       -1.98360
C          1.01550        1.69670       -2.63850
C          1.08860       -0.65140       -3.00290
C         -1.01870        0.39220       -2.21880
C          0.18150       -1.65980        0.70160
C          0.09860       -3.19570        0.14630
C          1.42120       -3.94590        0.01240
C         -0.73380       -4.02860        1.15020
C         -0.59500       -3.38090       -1.21150
Ni         3.40240       -0.05200       -0.06310
Br         3.40240        2.36580       -0.99180
C          3.40240       -2.05900        0.70780
C          4.24070       -3.02540        0.31850
C          5.55240       -0.05200       -0.06310
N          6.30390       -0.57250       -1.06430
C          5.91420       -1.11650       -2.34830
C          7.58630       -0.47590       -0.63460
C          7.60180        0.07930        0.60590
N          6.33040        0.33180        0.98570
C          5.95770        0.87260        2.27180
C          4.75640        1.56940        2.46290
C          4.42950        2.09370        3.72190
C          5.28760        1.89990        4.80660
C          6.48090        1.20070        4.63190
C          6.81940        0.70350        3.37550
H         -1.91800        0.41010        1.36520
H         -1.86670        1.66420        0.07750
H         -1.81070        2.15110        1.72360
H          0.19360        0.14760        2.95890
H          0.03400        1.90680        3.17230
H          1.60520        1.24080        2.67130
H          0.26820        3.08780       -0.25380
H          1.67030        2.83000        0.87420
H          0.15080        3.49150        1.42300
H          2.07610        1.62920       -2.93350
H          0.77790        2.62830       -2.12950
H          0.55910        1.84570       -3.64360
H          2.18970       -0.75210       -2.93090
H          0.86120       -0.34290       -4.05420
H          0.62470       -1.60750       -3.02410
H         -1.47780        1.31210       -1.84210
H         -1.51700       -0.51200       -1.82020
H         -1.26090        0.44840       -3.30570
H         -0.89150       -1.40570        0.77230
H          0.56140       -1.71400        1.73980
H          1.89530       -4.05440        1.00650
H          2.02950       -3.45450       -0.77360
H          1.29590       -4.99130       -0.34060
H         -0.27330       -4.01070        2.15990
H         -0.77580       -5.09880        0.83180
H         -1.77760       -3.66180        1.21160
H          0.07730       -3.11280       -2.00050
H         -1.57320       -2.87280       -1.28590
H         -0.73770       -4.46140       -1.44310
H          2.79290       -2.21190        1.58800
H          4.92370       -2.89880       -0.50090
H          4.23290       -3.97780        0.84350
H          4.87120       -0.82870       -2.58990
H          6.03090       -2.21980       -2.34770
H          6.58840       -0.71630       -3.13420
H          8.45280       -0.78530       -1.21760
H          8.49150        0.29440        1.18150
H          4.07400        1.74040        1.64440
H          3.50760        2.64630        3.86490
H          5.03320        2.28860        5.78400
H          7.14740        1.04030        5.47060
H          7.75120        0.16440        3.27940
