75

P          1.03650       -0.05390        0.07590
C          0.23220        0.03320       -1.54560
C         -1.14640       -0.08540       -1.77740
C         -1.62440       -0.18520       -3.09730
C         -0.72860       -0.17770       -4.18570
C         -1.19660       -0.35850       -5.60070
C          0.63670       -0.03350       -3.94820
C          1.11040        0.06480       -2.64290
C          0.40300       -1.71220        0.43510
C          0.69050       -2.79060       -0.43100
C          0.30850       -4.10150       -0.09540
C         -0.37490       -4.34150        1.10090
C         -0.76080       -5.73710        1.49770
C         -0.68530       -3.26630        1.95200
C         -0.30520       -1.95970        1.61770
C          0.34610        1.43610        0.86070
C         -0.51740        2.35590        0.22790
C         -1.19260        3.32430        0.98470
C         -1.01370        3.39950        2.37470
C         -1.79230        4.38200        3.20440
C         -0.12100        2.51900        2.99740
C          0.54700        1.54640        2.24690
Ni         3.49650       -0.05390        0.07590
Br         3.38340        2.18750       -1.01960
C          3.27370       -1.94300        1.05380
C          4.21300       -2.76140        1.40090
P          5.95650       -0.05390        0.07590
C          7.26420       -1.21770        0.83800
C          7.06760       -1.33780        2.38480
C          7.35020       -2.65160        0.16480
C          6.59930       -0.06040       -1.69570
C          6.06910        1.06010       -2.57590
C          8.14690       -0.00920       -1.79690
C          6.23480        1.46550        1.03710
H         -1.83950       -0.14370       -0.94840
H         -2.68570       -0.30370       -3.27110
H         -2.29540       -0.48220       -5.65670
H         -0.72160       -1.27080       -6.02570
H         -0.89420        0.51460       -6.21790
H          1.34850       -0.03910       -4.76830
H          2.18030        0.11620       -2.49190
H          1.24600       -2.62730       -1.34640
H          0.54150       -4.90280       -0.77110
H         -0.44790       -6.48090        0.73440
H         -1.86170       -5.80870        1.63070
H         -0.25960       -6.00070        2.45640
H         -1.21270       -3.44240        2.88210
H         -0.53270       -1.15200        2.30040
H         -0.73190        2.31010       -0.82730
H         -1.88850        3.98970        0.48940
H         -2.48280        4.98760        2.58010
H         -1.10460        5.06550        3.74210
H         -2.40790        3.83240        3.95000
H          0.02300        2.55730        4.07220
H          1.18250        0.83930        2.76670
H          2.35790       -2.34980        1.37240
H          5.13570       -2.44210        1.16830
H          4.02160       -3.69970        1.90760
H          8.27700       -0.78900        0.75530
H          6.05710       -1.58630        2.75560
H          7.30620       -0.37830        2.88080
H          7.74670       -2.10770        2.80960
H          6.45780       -3.28770        0.03920
H          8.05570       -3.29040        0.73610
H          7.70490       -2.62490       -0.87470
H          6.27420       -1.02510       -2.13950
H          6.39340        2.04760       -2.18240
H          4.98100        0.98850       -2.68630
H          6.48190        0.94240       -3.60350
H          8.55010        0.92260       -1.35670
H          8.45950       -0.08930       -2.85940
H          8.68030       -0.84870       -1.32830
H          5.81890        1.29930        2.05660
H          5.74380        2.34600        0.59280
H          7.32550        1.64520        1.13890
