57

P          0.93390       -0.02400       -0.07110
C          0.33990       -1.61750       -0.79180
C         -0.99600       -2.03780       -0.90120
C         -1.30040       -3.35470       -1.32700
C         -0.28210       -4.27380       -1.64900
C         -0.58970       -5.69670       -2.06460
C          1.04660       -3.85930       -1.55220
C          1.35080       -2.55850       -1.12490
C          0.23500       -0.16240        1.62580
C          0.19730       -1.35160        2.39700
C         -0.41230       -1.35530        3.67320
C         -0.97570       -0.17880        4.20040
C         -1.67960       -0.15650        5.53570
C         -0.89840        1.00000        3.45380
C         -0.30870        1.00410        2.18650
C          0.36320        1.34290       -1.15210
C         -1.01950        1.59650       -1.32610
C         -1.46460        2.65520       -2.13850
C         -0.53900        3.48940       -2.78050
C         -0.98390        4.52950       -3.77690
C          0.82520        3.31870       -2.51300
C          1.26850        2.26480       -1.69970
Ni         3.39390       -0.02400       -0.07110
Br         3.44820       -0.09920       -2.52710
C          3.25940        0.06740        2.05630
C          4.24120       -0.18230        2.96000
C          5.54390       -0.02400       -0.07110
N          6.28430       -0.09480       -1.19800
C          7.55990       -0.06820       -0.76460
C          7.55560        0.02640        0.60290
O          6.30900        0.05860        0.98800
H         -1.79920       -1.37840       -0.62080
H         -2.33260       -3.67270       -1.38360
H         -1.68090       -5.90340       -2.06480
H         -0.11170       -6.41510       -1.36070
H         -0.19690       -5.90510       -3.08360
H          1.84820       -4.55830       -1.78140
H          2.39940       -2.31090       -1.02030
H          0.60730       -2.27940        2.01950
H         -0.46210       -2.27410        4.24850
H         -1.68800       -1.15330        6.02520
H         -2.73720        0.15530        5.38510
H         -1.19990        0.57140        6.22480
H         -1.31050        1.92010        3.84970
H         -0.27390        1.93370        1.63770
H         -1.76620        0.98580       -0.83530
H         -2.52870        2.81730       -2.28220
H         -2.07860        4.48190       -3.96500
H         -0.48330        4.30170       -4.74470
H         -0.70930        5.56030       -3.47350
H          1.54930        3.99120       -2.95590
H          2.32360        2.17340       -1.50290
H          2.36840        0.31610        2.50080
H          5.21440       -0.55110        2.74430
H          4.00760       -0.07900        4.01370
H          8.43490       -0.11510       -1.39750
H          8.40810        0.06720        1.26860
