43

P          1.07610       -0.06340       -0.01360
C          0.22960       -0.92860       -1.37470
C         -1.15470       -1.15940       -1.51590
C         -1.62700       -1.98210       -2.55200
C         -0.73500       -2.59700       -3.43520
Cl        -1.32830       -3.67110       -4.68950
C          0.63390       -2.38150       -3.29640
C          1.10790       -1.55130       -2.28190
C          0.60020       -1.13150        1.36150
C          0.38560       -2.51580        1.21700
C          0.01300       -3.28780        2.32430
C         -0.14530       -2.68910        3.57870
Cl        -0.61030       -3.65650        4.96610
C          0.06820       -1.31620        3.72740
C          0.43650       -0.54180        2.62470
C          0.35920        1.60670       -0.11520
C         -1.03050        1.76460        0.06860
C         -1.62010        3.02360        0.15270
C         -0.82680        4.16430        0.08590
Cl        -1.56570        5.74890        0.23750
C          0.55830        4.03590       -0.06050
C          1.14970        2.76610       -0.15190
Ni         3.53610       -0.06340       -0.01360
Br         3.57600        1.34720       -2.05810
C          3.69110       -1.26970        1.73270
C          4.83030       -1.67970        2.31430
C          5.68610       -0.06340       -0.01360
O          6.90420       -0.06340       -0.01360
H         -1.88700       -0.78180       -0.84240
H         -2.68860       -2.16540       -2.64810
H          1.33610       -2.87390       -3.95870
H          2.18000       -1.43490       -2.17520
H          0.50650       -3.00530        0.26050
H         -0.15140       -4.35180        2.20840
H         -0.05000       -0.84780        4.69630
H          0.60030        0.52030        2.75710
H         -1.68130        0.92960        0.21050
H         -2.68970        3.10610        0.30800
H          1.18080        4.91960       -0.07280
H          2.22090        2.70160       -0.19760
H          2.81010       -1.61550        2.23430
H          5.82150       -1.44040        1.96000
H          4.79230       -2.29760        3.20270
