61

P          0.95330       -0.08060        0.03640
C          0.65750       -0.59760        1.75290
C         -0.51750       -0.21400        2.41900
C         -0.74020       -0.56640        3.74990
C          0.20940       -1.32420        4.43210
C          1.38180       -1.71740        3.78460
C          1.60720       -1.36110        2.44700
C          0.56480        1.60110       -0.54660
C         -0.15440        2.47960        0.28920
C         -0.53420        3.74730       -0.14750
C         -0.18490        4.17190       -1.42250
C          0.57050        3.34960       -2.25380
C          0.93830        2.06000       -1.81740
C         -0.29510       -1.25930       -0.79200
C         -1.80620       -1.15650       -0.48880
C         -2.49820       -0.06440       -1.31120
C         -2.36810       -0.38760       -2.80690
C         -0.89520       -0.47070       -3.21350
C         -0.13890       -1.48220       -2.33110
Ni         3.41330       -0.08060        0.03640
Br         3.44120        1.30570        2.10080
C          3.46190       -1.26750       -1.64770
C          3.45150       -0.80080       -2.88170
N          5.51330       -0.08060        0.03640
C          6.16390       -0.65540        1.08310
C          7.55540       -0.61580        1.16080
C          8.27080        0.13720        0.22280
C          9.75930        0.28390        0.33870
C          7.57520        0.77580       -0.81450
C          6.18760        0.61200       -0.92040
H         -1.27760        0.36940        1.92840
H         -1.65990       -0.27140        4.24060
H          0.02480       -1.60210        5.46290
H          2.11440       -2.29960        4.32900
H          2.52830       -1.66220        1.97070
H         -0.44940        2.19770        1.27980
H         -1.11080        4.39930        0.49910
H         -0.48290        5.15680       -1.77090
H          0.83490        3.67140       -3.24470
H          1.50160        1.41700       -2.48040
H          0.03580       -2.22480       -0.35050
H         -2.01890       -1.07010        0.57960
H         -2.27750       -2.12370       -0.78250
H         -2.06180        0.92740       -1.08510
H         -3.57700       -0.04400       -1.04970
H         -2.88250        0.38840       -3.41440
H         -2.86360       -1.36310       -3.01650
H         -0.45870        0.52740       -3.14200
H         -0.82740       -0.77800       -4.28220
H          0.91900       -1.56500       -2.63490
H         -0.59880       -2.47070       -2.56700
H          3.50910       -2.34300       -1.47560
H          3.40830        0.26130       -3.05300
H          3.48370       -1.50320       -3.70880
H          5.59830       -1.21790        1.81510
H          8.06190       -1.14160        1.96120
H         10.16330       -0.31160        1.18600
H         10.01110        1.35110        0.51660
H         10.24860       -0.05630       -0.59680
H          8.10170        1.40370       -1.52290
H          5.63920        1.13990       -1.68950
