41

P          0.93900        0.01790        0.07710
C         -0.14930       -1.33770       -0.47830
C          0.62250       -0.19250        1.86130
C          0.02070        1.31140       -0.81930
Ni         3.39900        0.01790        0.07710
Br         3.39900       -2.09180        1.57950
C          3.39900        1.76930       -1.17000
C          3.09070        1.78220       -2.46440
C          5.54900        0.01790        0.07710
N          6.37930        1.11140       -0.14890
C          6.04800        2.53230       -0.35010
C          7.23410        3.49680       -0.32950
C          7.65050        0.67470       -0.00620
C          7.62800       -0.65550        0.26650
N          6.34670       -1.08780        0.29600
C          6.02150       -2.52750        0.33860
C          6.93020       -3.39190       -0.55510
H         -1.21100       -1.18800       -0.20940
H          0.21790       -2.28490       -0.02350
H         -0.04260       -1.44840       -1.57950
H         -0.47460       -0.20940        2.03250
H          1.05280        0.66150        2.42070
H          1.02070       -1.14270        2.25210
H         -1.06870        1.16120       -0.62450
H          0.18750        1.24110       -1.91070
H          0.28210        2.31340       -0.43080
H          3.52580        2.72560       -0.67990
H          2.85820        0.87510       -3.00460
H          3.04070        2.74160       -2.97690
H          5.38520        2.85020        0.48750
H          5.60570        2.67620       -1.34650
H          7.79450        3.42610        0.63090
H          6.85740        4.53560       -0.42810
H          7.91590        3.29120       -1.18310
H          8.53960        1.25590       -0.08470
H          8.50040       -1.27770        0.38780
H          5.05120       -2.69650       -0.14720
H          6.10720       -2.91180        1.37430
H          6.85770       -3.06310       -1.61230
H          6.58690       -4.45540       -0.49450
H          7.98580       -3.36820       -0.23460
