66

P          0.94140       -0.05760        0.05700
C         -0.01920        0.73740        1.48510
C         -1.25440        1.44110        1.42130
C         -1.90330        1.90750        2.57400
C         -1.33750        1.72640        3.82870
C         -0.10670        1.10920        3.93310
C          0.53700        0.63960        2.79010
C          0.37200        0.88940       -1.44620
C          1.26220        1.39710       -2.41900
C          0.82130        2.20290       -3.47310
C         -0.53360        2.46790       -3.63170
C         -1.44970        1.86230       -2.77790
C         -1.00320        1.05970       -1.72020
C          0.20960       -1.75880        0.19320
C          0.86900       -2.96310       -0.23380
C          2.26600       -3.02830       -0.80270
C          0.19430       -4.19540       -0.14040
C         -1.11450       -4.26600        0.32530
C         -1.77790       -3.10750        0.69920
C         -1.13240       -1.87700        0.62710
Ni         3.40140       -0.05760        0.05700
Br         2.64570       -1.65820        1.91200
C          3.32440        2.03650       -0.46800
C          2.33580        2.89880       -0.20680
N          5.50140       -0.05760        0.05700
C          6.18670        0.87320       -0.69380
C          7.57670        1.00130       -0.66930
C          8.33260        0.18590        0.14790
C          7.70470       -0.79980        0.88120
C          8.47000       -1.63990        1.70550
C          7.87170       -2.66010        2.44700
C          6.49930       -2.89670        2.31610
C          5.76900       -3.97260        3.07440
O          4.57910       -4.15070        2.85540
C          6.38020       -4.81780        4.16060
C          5.76940       -2.05960        1.45230
C          6.29410       -0.95900        0.78210
H         -1.78780        1.65540        0.53850
H         -2.86000        2.40700        2.49530
H         -1.84490        2.07470        4.72040
H          0.35730        0.98250        4.90440
H          1.48090        0.20940        2.98780
H          2.31120        1.19400       -2.38630
H          1.53800        2.62660       -4.16530
H         -0.87280        3.10660       -4.43810
H         -2.50960        2.01870       -2.93320
H         -1.75590        0.57620       -1.12540
H          2.75230       -2.04040       -0.87740
H          2.24530       -3.47230       -1.81740
H          2.89290       -3.68330       -0.15410
H          0.68320       -5.11310       -0.44750
H         -1.62410       -5.21910        0.37540
H         -2.80440       -3.15760        1.03860
H         -1.72020       -1.02250        0.90880
H          4.13400        2.55480       -0.93280
H          1.43440        2.62660        0.30810
H          2.44410        3.93670       -0.51800
H          5.71340        1.52550       -1.37810
H          8.06880        1.74570       -1.28440
H          9.40990        0.31210        0.18040
H          9.54660       -1.50720        1.79350
H          8.49850       -3.26230        3.08370
H          7.44740       -4.61480        4.34830
H          6.26540       -5.89100        3.90400
H          5.83550       -4.62600        5.11150
H          4.79490       -2.30610        1.27230
