78

P          0.94380       -0.06220        0.05450
C          0.20420        1.54590       -0.36790
C         -1.04880        1.76100       -0.97430
C         -1.44280        3.07620       -1.29460
C         -0.62780        4.16690       -0.96920
C          0.60210        3.95710       -0.34820
C          1.02460        2.65660       -0.08540
C          0.64280       -0.72900       -1.65940
C          0.47980        0.04220       -2.83990
C          0.18380       -0.56680       -4.06260
C          0.05210       -1.94690       -4.16290
C          0.22500       -2.73150       -3.02530
C          0.51930       -2.12770       -1.79710
C          0.09160       -0.59980        1.61760
C         -0.50970        0.19970        2.66110
C         -0.53920        1.69570        2.77750
C         -1.14680       -0.44120        3.74660
C         -1.21990       -1.82300        3.83570
C         -0.63880       -2.60180        2.85070
C          0.01010       -2.00100        1.77630
Ni         3.40380       -0.06220        0.05450
Br         3.40380        0.70290       -2.41990
C          3.40380       -0.69740        2.10850
C          3.51590       -1.89520        2.68620
P          5.86380       -0.06220        0.05450
O          6.72070       -1.43750        0.59980
C          6.40630       -2.50980       -0.32120
C          7.20240       -3.76780        0.03000
C          4.91710       -2.92670       -0.36250
O          7.10420        0.11650       -1.16700
C          6.77160        0.92720       -2.28440
C          7.01560        2.40020       -1.97920
C          7.54150        0.48860       -3.54070
O          6.40870        0.81420        1.44980
C          5.99490        0.58160        2.76620
C          6.43290       -0.78660        3.31480
C          6.65110        1.66580        3.62590
H         -1.68530        0.93480       -1.24130
H         -2.38330        3.25270       -1.79370
H         -0.94060        5.18030       -1.19610
H          1.23160        4.79230       -0.07990
H          1.98750        2.51580        0.39010
H          0.56700        1.11430       -2.84260
H          0.08540        0.04510       -4.96140
H         -0.18840       -2.41690       -5.10520
H          0.11010       -3.80340       -3.08590
H          0.62970       -2.79490       -0.96810
H         -0.05820        2.23590        1.98520
H         -0.01550        1.99900        3.70940
H         -1.59310        2.04510        2.83380
H         -1.59950        0.14130        4.54090
H         -1.72220       -2.28920        4.67430
H         -0.69480       -3.68120        2.92030
H          0.44300       -2.66870        1.06400
H          2.83910       -0.03690        2.76240
H          3.75050       -2.80650        2.20660
H          3.25750       -1.98440        3.74030
H          6.69870       -2.23700       -1.36260
H          6.95460       -4.10370        1.06000
H          8.28940       -3.58190       -0.05200
H          6.93660       -4.59290       -0.67250
H          4.66130       -3.40890        0.57630
H          4.73660       -3.70240       -1.13370
H          4.22140       -2.09670       -0.59310
H          5.77610        0.76880       -2.59200
H          8.09260        2.55890       -1.77660
H          6.41140        2.70740       -1.10990
H          6.71540        3.02350       -2.85780
H          8.63650        0.57480       -3.39910
H          7.24770        1.12350       -4.41610
H          7.28800       -0.55810       -3.81020
H          4.94110        0.83170        2.87520
H          7.53310       -0.90450        3.22760
H          5.97070       -1.62710        2.77770
H          6.13370       -0.88260        4.37720
H          7.75790        1.58120        3.59860
H          6.30230        1.58350        4.67680
H          6.36840        2.67430        3.24720
