72

P          0.95560        0.00420        0.08950
O          0.72420       -1.64870       -0.35130
C         -0.63380       -2.04350       -0.25600
C         -0.74430       -3.54090       -0.49340
O          0.54010        0.77340        1.55470
C          0.85620       -0.15620        2.58780
C         -0.01850        0.03520        3.82660
C         -0.33030        0.68100       -0.99000
C         -1.58140        1.17360       -0.59960
C         -2.54250        1.46660       -1.58880
C         -2.25280        1.27350       -2.95030
C         -1.00210        0.80180       -3.33490
C         -0.05450        0.50670       -2.36240
Ni         3.41560        0.00420        0.08950
Br         3.41560        2.56010        0.50850
C          3.41560       -2.11750       -0.25830
C          3.79880       -2.76170       -1.33210
C          5.56560        0.00420        0.08950
N          6.45520       -1.16260        0.02110
C          6.32080       -2.71100        0.10500
C          6.61120       -3.53670       -1.21960
C          7.26420       -3.41480        1.14860
C          7.72570       -0.64070       -0.01830
C          7.70390        0.69250        0.08260
C          8.91840        1.44520        0.12530
C         10.14090        0.78210        0.06740
C         10.16800       -0.60450       -0.05950
C          8.97920       -1.31920       -0.13260
N          6.42390        1.15830        0.11890
C          6.28250        2.65640        0.14150
C          5.61470        3.26940       -1.07900
C          4.94300        4.50550       -0.90080
C          4.00940        4.93610       -1.84290
C          3.79990        4.19140       -3.00430
C          4.54480        3.03030       -3.24050
C          5.44110        2.55880       -2.27470
H         -1.24560       -1.59550       -1.06690
H         -1.06440       -1.80290        0.73960
H         -0.32300       -3.79900       -1.48980
H         -1.81480       -3.84140       -0.47960
H         -0.19830       -4.09790        0.29370
H          1.91630       -0.00940        2.87670
H          0.70480       -1.23000        2.30870
H          0.02140        1.08340        4.18190
H          0.35790       -0.62590        4.64120
H         -1.07330       -0.25240        3.62380
H         -1.83260        1.27380        0.44580
H         -3.52740        1.81160       -1.30880
H         -2.99800        1.47090       -3.71080
H         -0.77030        0.63470       -4.38180
H          0.89880        0.09900       -2.68450
H          2.82550       -2.68930        0.45210
H          4.27610       -2.24650       -2.14970
H          3.61840       -3.83990       -1.35350
H          5.38910       -2.96600        0.60220
H          7.51300       -3.18250       -1.74820
H          5.86330       -3.64130       -2.01260
H          6.75710       -4.61870       -0.97820
H          8.23400       -3.77590        0.75130
H          6.84320       -4.41660        1.40110
H          7.42960       -2.85150        2.08450
H          9.01810        2.50610        0.19100
H         11.06350        1.34270        0.12170
H         11.12220       -1.10520       -0.10680
H          9.11260       -2.35790       -0.27450
H          7.19130        3.24850        0.23800
H          5.82420        2.93540        1.10750
H          5.02950        5.04950        0.03560
H          3.40840        5.81470       -1.63960
H          3.04660        4.50600       -3.71310
H          4.38430        2.46090       -4.14400
H          5.95050        1.61890       -2.43560
