56

P          0.96780        0.00370       -0.09460
C         -0.07900        0.57500       -1.59230
C         -1.58610        0.37290       -1.46450
C          0.16280        2.08570       -1.83470
C          0.36270       -0.15280       -2.89770
C          0.65180       -1.80250       -0.01280
C          1.03710       -2.66000       -1.06220
C          0.65430       -4.00800       -1.06500
C         -0.08920       -4.53000       -0.00650
C         -0.42120       -3.71320        1.07150
C         -0.04800       -2.36650        1.07360
C          0.32200        1.01710        1.26450
C         -0.93510        0.72090        1.82750
C         -1.46410        1.50010        2.85430
C         -0.76650        2.61680        3.30790
C          0.46170        2.95390        2.72780
C          1.00950        2.15460        1.71190
Ni         3.42780        0.00370       -0.09460
Br         3.26350       -0.77430        2.27400
C          3.54510        0.77700       -2.04880
C          3.53970        2.05040       -2.32330
N          5.52780        0.00370       -0.09460
C          5.99920       -0.85410       -1.21300
C          6.05780        1.33240       -0.49930
C          6.13410       -0.43160        1.17420
H         -1.99420        0.95800       -0.62230
H         -1.82670       -0.70210       -1.35620
H         -2.08120        0.74690       -2.39330
H         -0.25360        2.71550       -1.02660
H         -0.27890        2.42090       -2.80160
H          1.22140        2.32370       -1.89850
H          0.05200       -1.21110       -2.91470
H          1.44630       -0.09670       -3.08220
H         -0.11600        0.28980       -3.79820
H          1.60850       -2.29380       -1.90060
H          0.91960       -4.64790       -1.89710
H         -0.40110       -5.56710       -0.01560
H         -0.98500       -4.11900        1.90240
H         -0.33340       -1.78550        1.92890
H         -1.52610       -0.11080        1.47690
H         -2.42260        1.24020        3.28800
H         -1.18770        3.22580        4.09750
H          0.98300        3.83880        3.06630
H          1.95300        2.43610        1.26290
H          3.72050        0.05470       -2.86870
H          3.45710        2.78900       -1.52980
H          3.66500        2.39850       -3.34900
H          5.70780       -0.51230       -2.22190
H          5.59230       -1.87930       -1.08360
H          7.11110       -0.93540       -1.22290
H          5.86030        1.62840       -1.54350
H          7.16710        1.37200       -0.40120
H          5.63940        2.11150        0.17320
H          5.83500       -1.47400        1.41180
H          5.83930        0.25210        1.99720
H          7.24640       -0.41540        1.11740
