71

P          0.93300       -0.06100       -0.04220
C         -0.14540        0.59690        1.44890
C          0.41520       -0.00870        2.79240
C          1.77970        0.60600        3.18030
C          1.62580        2.11300        3.43480
C          0.85050        2.83340        2.31400
C         -0.39070        2.09560        1.83210
C          0.61460        0.59190       -1.84680
C         -0.85170        0.52430       -2.39310
C         -1.75480        1.50070       -1.62460
C         -1.26190        2.93180       -1.88900
C          0.24880        3.10470       -1.60870
C          1.09690        2.00140       -2.24910
C          0.22370       -1.80870        0.21840
C          0.72550       -2.97070        0.93990
C          1.91860       -3.03820        1.85450
C          0.02530       -4.19820        0.86580
C         -1.17950       -4.31320        0.19080
C         -1.74970       -3.18630       -0.35750
C         -1.07320       -1.97610       -0.31370
Ni         3.39300       -0.06100       -0.04220
Br         3.39300        2.50630        0.29990
C          3.39300       -2.19220       -0.32620
C          2.66500       -2.72980       -1.30670
C          5.54300       -0.06100       -0.04220
N          6.43320        1.04490        0.07730
C          6.47080        2.52030        0.21200
C          7.67870        0.56440        0.01770
Cl         9.20310        1.46490        0.10730
C          7.65260       -0.76120       -0.15990
Cl         9.13130       -1.73140       -0.29080
N          6.37290       -1.19210       -0.20930
C          6.19330       -2.63090       -0.41620
H         -1.16350        0.18980        1.30410
H          0.49440       -1.10060        2.75770
H         -0.28550        0.18880        3.63570
H          2.52510        0.40840        2.38330
H          2.17190        0.13890        4.11610
H          2.63400        2.57400        3.58150
H          1.06050        2.25290        4.37930
H          1.38400        2.91170        1.42740
H          0.65520        3.88540        2.60360
H         -0.88870        2.65130        1.02480
H         -1.10130        2.13180        2.68810
H          1.19020       -0.10150       -2.49230
H         -1.24360       -0.49640       -2.48230
H         -0.88920        0.81770       -3.46620
H         -1.74670        1.26290       -0.55230
H         -2.81330        1.41510       -1.95930
H         -1.84830        3.66110       -1.28820
H         -1.45110        3.14850       -2.96260
H          0.45240        3.08230       -0.54060
H          0.57090        4.09600       -1.98990
H          2.17330        2.12470       -2.06470
H          0.97730        2.10230       -3.35600
H          2.43850       -2.07090        1.96440
H          2.59670       -3.85370        1.52670
H          1.57590       -3.33790        2.87030
H          0.41070       -5.08450        1.35560
H         -1.69820       -5.26160        0.14170
H         -2.72630       -3.24290       -0.82360
H         -1.61520       -1.15370       -0.68990
H          3.97290       -2.84820        0.25530
H          2.08070       -2.10020       -1.96160
H          2.67710       -3.80020       -1.48050
H          5.63500        3.16040        0.17750
H          7.05570        2.93620       -0.64560
H          6.98540        2.78730        1.16110
H          7.12670       -3.17620       -0.64890
H          5.57750       -2.83210       -1.31570
H          5.91380       -3.11960        0.53910
