65

P          0.90100        0.00200        0.01370
C          0.28120        0.82610       -1.49470
C         -1.05670        0.99760       -1.90000
C         -1.35180        1.68340       -3.08230
C         -0.32580        2.24120       -3.86120
C          0.99590        2.12580       -3.44300
C          1.29100        1.42860       -2.27540
C          0.54030       -1.70670       -0.51900
C          1.42160       -2.71820       -0.10640
C          1.11540       -4.06940       -0.31820
C         -0.07850       -4.43270       -0.94500
C         -0.97000       -3.44450       -1.35280
C         -0.67820       -2.09860       -1.12950
C         -0.01510        0.78760        1.38640
C         -0.33860        2.17000        1.51710
C          0.07770        3.24620        0.55730
C         -1.11480        2.59080        2.61460
C         -1.54500        1.68520        3.58380
C         -1.21670        0.34210        3.46930
C         -0.46810       -0.10280        2.37650
Ni         3.36100        0.00200        0.01370
Br         3.36100       -1.16500       -2.29850
C          3.36100        0.97070        1.93300
C          4.19990        1.88140        2.43790
C          5.51100        0.00200        0.01370
N          6.30350       -0.02590        1.15670
C          6.00280       -0.22100        2.60220
C          6.60730       -1.46650        3.23600
C          7.58230        0.00140        0.74070
C          7.61120       -0.00950       -0.61230
N          6.34640       -0.04950       -1.08860
C          6.03260       -0.01780       -2.52830
C          7.14710        0.47310       -3.44800
H         -1.87610        0.62000       -1.30440
H         -2.37500        1.79870       -3.41230
H         -0.55050        2.77930       -4.77290
H          1.79550        2.57950       -4.01810
H          2.32680        1.37900       -1.96750
H          2.33130       -2.46680        0.42310
H          1.78940       -4.84170        0.02940
H         -0.32840       -5.47450       -1.09210
H         -1.91040       -3.72030       -1.81720
H         -1.43090       -1.41090       -1.41840
H          0.79470        2.90580       -0.19770
H          0.58340        4.06110        1.11440
H         -0.82560        3.65980        0.05710
H         -1.38570        3.63370        2.72860
H         -2.13200        2.02810        4.42570
H         -1.54510       -0.36310        4.22410
H         -0.23840       -1.16120        2.31090
H          2.46000        0.80550        2.51190
H          5.08180        2.22010        1.91280
H          3.97300        2.30780        3.41430
H          4.94920       -0.44050        2.77860
H          6.36710        0.65980        3.17770
H          6.20240       -2.37970        2.75140
H          6.28780       -1.48300        4.30590
H          7.71220       -1.46140        3.21110
H          8.44620       -0.02470        1.39100
H          8.51820       -0.01250       -1.21220
H          5.20190        0.69790       -2.69120
H          5.83210       -1.05240       -2.86940
H          7.43040        1.51530       -3.18610
H          6.76730        0.46380       -4.49010
H          8.03410       -0.19430       -3.40870
