70

P          0.93750        0.02080       -0.07520
C          0.40240        0.52290       -1.87950
C         -1.04870        0.77410       -2.40660
C         -1.54660        2.23030       -2.21130
C         -0.61340        3.26320       -2.80720
C          0.78560        3.05450       -2.22200
C          1.26280        1.62330       -2.55780
C          0.18340       -1.71890        0.05090
C          0.40590       -2.26810        1.47890
C         -0.66580       -1.70220        2.43310
C         -2.06330       -2.22930        2.04580
C         -2.43350       -2.00490        0.57270
C         -1.24540       -2.22680       -0.38090
C          0.32090        1.44880        1.12770
C         -1.08580        1.82690        1.30410
C         -2.25980        1.22690        0.64830
C         -1.53480        2.76920        2.24140
C         -0.68420        3.38910        3.11270
C         -1.23070        4.34840        4.13920
C          0.65800        3.03810        3.05940
C          1.16030        2.08010        2.14480
C          2.58620        1.73230        2.45620
Ni         3.39750        0.02080       -0.07520
Br         3.35610        2.56320       -0.34310
C          3.63370       -2.07590        0.29950
C          3.01800       -3.19260       -0.08310
O          5.44750        0.02080       -0.07520
C          6.33210       -0.98120       -0.00650
N          7.60550       -0.55270       -0.08030
C          7.50760        0.77160       -0.21210
C          6.18110        1.11460       -0.21550
H          0.72220       -0.39940       -2.40900
H         -1.77320        0.02420       -2.06580
H         -1.03080        0.62710       -3.51040
H         -1.55080        2.53480       -1.17800
H         -2.57100        2.34100       -2.63930
H         -0.99090        4.27970       -2.54800
H         -0.59670        3.17040       -3.91220
H          0.76430        3.21180       -1.12200
H          1.46150        3.81110       -2.67250
H          2.32690        1.43740       -2.37670
H          1.18200        1.53230       -3.66700
H          0.72790       -2.19300       -0.73060
H          1.41890       -2.01930        1.85000
H          0.31500       -3.37880        1.48280
H         -0.63150       -0.60000        2.43380
H         -0.45350       -2.03680        3.47150
H         -2.84650       -1.77770        2.70050
H         -2.05870       -3.32080        2.22150
H         -2.90670       -1.06380        0.41390
H         -3.28680       -2.66050        0.29700
H         -1.50460       -1.97280       -1.42410
H         -1.15350       -3.33670       -0.39530
H         -1.87700        0.54800       -0.08450
H         -2.95070        1.97300        0.19490
H         -2.87900        0.73570        1.43130
H         -2.59650        3.00030        2.32720
H         -2.33690        4.46580        4.05350
H         -0.77510        5.35110        4.02060
H         -1.02540        3.96300        5.15940
H          1.30420        3.49280        3.80490
H          2.65930        1.44110        3.52800
H          3.22580        2.63450        2.34300
H          2.96530        0.88280        1.87410
H          4.45900       -2.30440        0.94540
H          2.29280       -3.24540       -0.85160
H          3.37340       -4.14090        0.28070
H          6.16760       -2.03660        0.04460
H          8.35070        1.44080       -0.31730
H          5.85830        2.12770       -0.33110
