31

P          0.94590        0.08170       -0.01990
C         -0.23420        1.15650        0.86490
C          0.63190        0.78460       -1.67360
C          0.15280       -1.47130        0.51690
Ni         3.40590        0.08170       -0.01990
Br         3.40590        2.52810       -0.87050
C          3.40590       -1.94900        0.68620
C          2.92650       -2.95540       -0.04210
N          5.50590        0.08170       -0.01990
C          6.28700        1.23820       -0.08210
F          5.81310        2.48840       -0.02860
C          7.68970        1.21710       -0.06960
C          8.36370        0.01950       -0.02730
F          9.71720       -0.00470       -0.01950
C          7.63870       -1.14620        0.03960
C          6.23560       -1.10560        0.04970
F          5.70140       -2.34380        0.02640
H         -1.28010        1.01680        0.53330
H          0.06790        2.21480        0.70030
H         -0.14770        0.96150        1.95590
H         -0.46230        0.80450       -1.86080
H          1.11430        0.15610       -2.44780
H          0.98920        1.82570       -1.75230
H         -0.95090       -1.35870        0.41670
H          0.38800       -1.69270        1.57600
H          0.42440       -2.30990       -0.14530
H          3.80030       -2.14700        1.67840
H          2.52000       -2.77220       -1.02950
H          2.93030       -3.96400        0.36010
H          8.24580        2.14270       -0.09400
H          8.15870       -2.09130        0.06580
