93

P          1.02930        0.06870        0.06650
C         -0.33800        1.48670        0.21600
C         -0.55010        2.21660        1.58570
C          0.38840        3.42270        1.83050
C          0.23730        4.48990        0.72570
C          0.45700        3.88800       -0.64870
C         -0.40320        2.62840       -0.87850
C          0.65270       -0.25210       -1.81160
C          1.37400       -1.40380       -2.53540
C          0.81140       -2.79320       -2.14470
C         -0.64500       -2.91270       -2.59420
C         -1.47320       -1.80040       -1.96020
C         -0.86140       -0.41170       -2.24980
C          0.23540       -1.25950        1.22650
C          0.92310       -2.22870        2.04100
C          2.36520       -2.27160        2.21540
C          0.27330       -3.20160        2.79200
C         -1.09540       -3.23800        2.86450
C         -1.83180       -2.28490        2.18470
C         -1.18820       -1.33170        1.38030
Ni         3.48930        0.06870        0.06650
Br         3.44900       -2.43070       -0.42760
C          3.33320        2.02650        0.16110
C          4.07240        2.78240        0.97200
C          5.63930        0.06870        0.06650
N          6.48120       -0.91840        0.61850
C          6.07810       -2.07620        1.46820
C          7.19030       -2.94880        2.07920
C          5.30580       -1.54770        2.70200
C          7.76070       -0.48470        0.39310
C          7.72350        0.73120       -0.23270
C          8.89220        1.40530       -0.61350
C         10.12670        0.83660       -0.35240
C         10.21470       -0.37570        0.33890
C          9.03120       -1.03250        0.73880
N          6.43560        1.11380       -0.41950
C          6.14410        2.35110       -1.18580
C          6.64250        2.13520       -2.58390
C          6.14470        1.02520       -3.27690
C          6.66320        0.68170       -4.51840
C          7.67810        1.45550       -5.08730
C          8.15060        2.59660       -4.42620
C          7.62820        2.94630       -3.17910
H         -1.27830        0.98030        0.05130
H         -0.54310        1.51000        2.43820
H         -1.57290        2.66920        1.56350
H          1.43270        3.07130        1.90730
H          0.12000        3.92080        2.79070
H          0.97360        5.31380        0.88350
H         -0.77910        4.93370        0.74500
H          1.49240        3.73910       -0.73080
H          0.28000        4.63360       -1.44870
H         -0.25910        2.26290       -1.90550
H         -1.44440        3.02620       -0.86720
H          1.05120        0.65500       -2.30500
H          2.45840       -1.27560       -2.43730
H          1.21730       -1.29990       -3.63520
H          0.86060       -2.95180       -1.04640
H          1.39930       -3.59100       -2.64650
H         -1.06460       -3.90750       -2.31050
H         -0.69300       -2.82180       -3.70100
H         -1.52890       -1.99910       -0.89230
H         -2.51210       -1.84750       -2.35210
H         -1.53960        0.36750       -1.88630
H         -0.90150       -0.29400       -3.35560
H          2.74830       -1.38720        1.70950
H          2.74230       -3.26560        1.86590
H          2.62110       -2.18260        3.28230
H          0.84050       -3.93730        3.35680
H         -1.57590       -3.98840        3.47560
H         -2.90590       -2.30290        2.26690
H         -1.88200       -0.68640        0.89710
H          2.69680        2.33800       -0.59420
H          4.68600        2.29600        1.72340
H          4.03840        3.86410        0.92080
H          5.50220       -2.77120        0.88720
H          7.82020       -2.35460        2.78660
H          7.78730       -3.45660        1.29540
H          6.75930       -3.76930        2.69290
H          5.97020       -1.00530        3.39210
H          4.87210       -2.42340        3.24560
H          4.55210       -0.82600        2.40520
H          8.87920        2.34970       -1.11510
H         11.03900        1.33570       -0.65470
H         11.17390       -0.80660        0.56860
H          9.22640       -1.95130        1.23810
H          6.61620        3.22390       -0.69150
H          5.07870        2.56470       -1.33020
H          5.37700        0.40660       -2.82670
H          6.29130       -0.19690       -5.02090
H          8.10000        1.16330       -6.03880
H          8.94240        3.18560       -4.87310
H          8.02720        3.81620       -2.66550
