85

P          1.06230        0.07460       -0.02350
C          0.67110        1.01420       -1.54490
C         -0.64460        1.06780       -2.03710
C         -0.95500        1.71940       -3.23020
C          0.04690        2.33080       -3.97070
C          1.36720        2.28810       -3.50710
C          1.67930        1.64660       -2.29760
C          0.71070       -1.71080       -0.14340
C          1.37090       -2.66540        0.64520
C          0.99240       -4.01970        0.57970
C         -0.02440       -4.43030       -0.28630
C         -0.64620       -3.49800       -1.11180
C         -0.27040       -2.16090       -1.05360
C         -0.08270        0.85930        1.29610
C         -1.62250        0.88430        1.14680
C         -2.22850       -0.50910        1.32810
C         -1.89940       -1.06980        2.72420
C         -0.39980       -1.02600        3.03660
C          0.17890        0.35750        2.75340
Ni         3.52230        0.07460       -0.02350
Br         3.52230       -1.33510       -2.19620
C          3.52230        1.24490        1.78010
C          3.93020        2.50680        1.91850
P          5.98230        0.07460       -0.02350
C          6.65590        0.00900        1.66420
C          6.35960       -1.19090        2.34950
C          6.71970       -1.37880        3.68300
C          7.35810       -0.35410        4.37180
C          7.64220        0.85250        3.72100
C          7.29790        1.04080        2.36890
C          6.58940       -1.26660       -1.12180
C          6.38200       -1.19550       -2.51170
C          6.69800       -2.27500       -3.34520
C          7.28400       -3.42170       -2.81330
C          7.58700       -3.47360       -1.45390
C          7.24780       -2.40380       -0.61210
C          6.48630        1.74140       -0.56270
C          7.85890        2.07260       -0.73250
O          8.81960        1.14770       -0.45100
C         10.17700        1.30940       -0.67260
C          8.20670        3.34580       -1.24270
C          7.21860        4.25850       -1.60330
C          5.87750        3.91400       -1.48280
C          5.51620        2.66110       -0.97590
H         -1.45560        0.57130       -1.54370
H         -1.97850        1.72980       -3.58700
H         -0.19240        2.81660       -4.90470
H          2.15310        2.74660       -4.09740
H          2.70590        1.60070       -1.97650
H          2.14530       -2.36300        1.34070
H          1.47260       -4.75180        1.21620
H         -0.33830       -5.46820       -0.32140
H         -1.43710       -3.81060       -1.78970
H         -0.79370       -1.48130       -1.69600
H          0.24410        1.92310        1.28770
H         -1.94830        1.39780        0.23790
H         -2.03780        1.53480        1.95740
H         -1.85230       -1.17140        0.54480
H         -3.33060       -0.46460        1.20350
H         -2.26300       -2.11730        2.81040
H         -2.42300       -0.45060        3.48350
H          0.11510       -1.77090        2.44480
H         -0.22680       -1.30720        4.09800
H          1.24570        0.36410        3.01010
H         -0.29990        1.06760        3.46510
H          3.25220        0.72560        2.68430
H          4.27680        3.11080        1.10710
H          3.94030        2.96060        2.90380
H          5.82990       -1.99710        1.85560
H          6.48120       -2.31270        4.18100
H          7.61370       -0.49610        5.41500
H          8.11580        1.64900        4.27710
H          7.49950        1.99480        1.91290
H          5.91450       -0.32230       -2.94890
H          6.46060       -2.23290       -4.40220
H          7.50910       -4.26510       -3.45560
H          8.06430       -4.35570       -1.04530
H          7.48370       -2.50240        0.43270
H         10.71280        0.37530       -0.40890
H         10.57550        2.13800       -0.04910
H         10.37170        1.52520       -1.74720
H          9.23860        3.63690       -1.38530
H          7.49980        5.22540       -2.00510
H          5.11390        4.61440       -1.79560
H          4.47440        2.40400       -0.93010
