67

P          0.94580       -0.05950        0.05930
C          0.26810       -0.96780       -1.35780
C         -0.96740       -1.63060       -1.41830
C         -1.31140       -2.35410       -2.57460
C         -0.45180       -2.38470       -3.68070
C          0.74930       -1.68200       -3.64560
C          1.10560       -0.98400       -2.49300
C          0.64020       -1.35930        1.35890
C          0.30920       -2.71570        1.13190
C         -0.14660       -3.53080        2.18590
C         -0.30080       -3.01290        3.47340
C          0.05110       -1.69370        3.72820
C          0.54350       -0.88990        2.69440
C         -0.33260        1.34120        0.09120
C         -0.54570        2.42490       -0.86860
O          0.19710        2.56840       -2.01230
C          0.14110        3.68630       -2.85280
C         -1.53480        3.41290       -0.58070
C         -2.29710        3.36800        0.57460
C         -2.10990        2.34260        1.47150
C         -1.16540        1.36140        1.22690
Ni         3.40580       -0.05950        0.05930
Br         3.31530       -2.52030       -0.42110
C          3.47200        2.00410        0.51290
C          2.61600        2.94170        0.18740
N          5.50580       -0.05950        0.05930
C          6.15510       -1.26100        0.25540
C          7.54340       -1.37660        0.36230
C          8.34530       -0.25860        0.28800
C          7.76810        0.97230        0.03070
C          8.59280        2.11210       -0.06920
C          8.04750        3.36280       -0.35880
C          6.69740        3.46100       -0.70180
C          5.98940        4.76020       -0.97290
O          4.84000        4.74290       -1.39100
C          6.51990        6.09970       -0.54380
C          5.92800        2.29020       -0.70450
C          6.35760        1.05520       -0.16040
H         -1.63680       -1.62450       -0.57120
H         -2.24120       -2.90310       -2.61580
H         -0.71340       -2.94860       -4.56810
H          1.41180       -1.68690       -4.50500
H          2.05150       -0.45180       -2.48820
H          0.35590       -3.15440        0.15060
H         -0.42150       -4.56090        2.00160
H         -0.69960       -3.62790        4.27400
H         -0.08900       -1.28180        4.72300
H          0.76620        0.14260        2.93750
H          0.91390        3.63100       -3.64490
H          0.33300        4.62680       -2.28050
H         -0.85650        3.77210       -3.33990
H         -1.73060        4.25030       -1.23830
H         -3.03890        4.12980        0.77960
H         -2.69720        2.29740        2.37780
H         -1.11940        0.62360        1.97910
H          4.38080        2.38910        1.00080
H          1.78770        2.70710       -0.40030
H          2.79120        3.99010        0.41720
H          5.64840       -2.17890        0.42090
H          7.99870       -2.34280        0.53990
H          9.41940       -0.36020        0.39490
H          9.65980        2.04040        0.10710
H          8.69690        4.22580       -0.36420
H          7.56380        6.07860       -0.18680
H          5.89090        6.45250        0.30600
H          6.41890        6.83390       -1.36800
H          4.95840        2.39120       -1.12560
