42

P          1.27500        0.00000        0.00000
N          0.27280        1.45570       -0.22200
C         -1.16430        1.25340       -0.23780
C         -1.47840       -0.20500        0.04270
C         -3.00650       -0.37570        0.07880
C         -0.84560       -1.05920       -1.12710
N          0.60490       -0.82430       -1.38830
N          0.62150       -0.32590        1.58640
C         -0.84310       -0.58040        1.44420
Ni         3.73500        0.00030       -0.00050
Br         3.54210       -2.40960        0.59560
C          3.62180        2.03370       -0.35800
C          3.58920        2.84920        0.69860
N          5.83500        0.00060       -0.00090
C          6.50640        1.09300       -0.48860
C          7.89640        1.10740       -0.60160
C          8.62960       -0.02320       -0.24630
C         10.11820       -0.06100       -0.42990
C          7.95000       -1.13100        0.26390
C          6.55640       -1.09360        0.39890
H          0.58430        1.97000       -1.07950
H         -1.57770        1.56270       -1.22740
H         -1.61270        1.91980        0.52870
H         -3.45280       -0.05570       -0.89280
H         -3.44860        0.27460        0.86890
H         -3.28740       -1.42330        0.27540
H         -1.40100       -0.84840       -2.07080
H         -1.00240       -2.13240       -0.89940
H          0.73140       -0.19450       -2.21490
H          0.79050        0.52360        2.17340
H         -1.37320       -0.01290        2.24470
H         -1.03760       -1.65480        1.63530
H          3.59110        2.43290       -1.36490
H          3.61940        2.43170        1.70120
H          3.53300        3.92560        0.57820
H          5.99410        1.97710       -0.81570
H          8.38960        1.98870       -0.99380
H         10.50400        0.90150       -0.83130
H         10.37770       -0.86170       -1.15590
H         10.61790       -0.26780        0.53730
H          8.49330       -2.02700        0.53830
H          6.08370       -1.97880        0.77270
