62

P          1.02340       -0.04800        0.08460
C          0.00530       -1.45140       -0.70700
C         -1.53130       -1.39340       -0.67400
C          0.39010       -1.55170       -2.21110
C          0.38840       -2.75610        0.02680
C          0.46200       -0.16150        1.81730
C          1.15380       -0.93440        2.76210
C          0.61560       -1.12740        4.04910
C         -0.61510       -0.55720        4.39400
C         -1.30410        0.21460        3.46690
C         -0.76730        0.41080        2.19480
C          0.51240        1.45460       -0.84140
C         -0.84700        1.79240       -0.96090
C         -1.27240        2.91440       -1.68340
C         -0.33100        3.73500       -2.28960
C          1.03600        3.41920       -2.17380
C          1.45430        2.28890       -1.45920
Ni         3.48340       -0.04800        0.08460
Br         3.48340        2.16770        1.42570
C          3.48340       -1.88730       -1.02870
C          3.90730       -3.03520       -0.49510
N          5.58340       -0.04800        0.08460
C          6.26400       -0.93280       -0.71150
C          7.64690       -1.06800       -0.67900
C          8.43140       -0.31070        0.20580
N          9.86670       -0.51630        0.32540
C         10.63440       -1.37760       -0.57610
C         10.67610        0.06440        1.38850
C          7.72610        0.62270        0.99870
C          6.33060        0.75590        0.90520
H         -1.94800       -0.63320       -1.35110
H         -1.92120       -1.30480        0.35640
H         -1.93060       -2.35240       -1.09420
H          0.06210       -0.64680       -2.75750
H         -0.06070       -2.44750       -2.68220
H          1.44700       -1.62750       -2.38180
H         -0.02700       -2.75460        1.05850
H          1.46660       -2.88560        0.13960
H         -0.00120       -3.65720       -0.49320
H          2.08520       -1.41890        2.50320
H          1.13480       -1.73760        4.77420
H         -1.04240       -0.71960        5.37390
H         -2.26270        0.65150        3.72060
H         -1.35730        0.99400        1.51890
H         -1.63110        1.22240       -0.51820
H         -2.33140        3.13480       -1.75560
H         -0.66200        4.59660       -2.84050
H          1.75330        4.06490       -2.65360
H          2.50810        2.06370       -1.39910
H          3.41170       -1.85550       -2.10700
H          4.06040       -3.11040        0.57610
H          4.01880       -3.91770       -1.11770
H          5.77850       -1.56040       -1.42460
H          8.04660       -1.80020       -1.35090
H         10.06740       -1.81640       -1.41870
H         11.07600       -2.21980       -0.00260
H         11.45130       -0.79410       -1.04440
H         10.12010        0.67630        2.11210
H         11.47780        0.69200        0.95490
H         11.14440       -0.75150        1.98130
H          8.20410        1.26440        1.72010
H          5.88930        1.45230        1.58320
