38

C          1.02400       -0.65300       -0.05500
N          1.11810        0.63150       -0.05660
C          2.36690        1.36060       -0.18900
C          3.06230        1.09070       -1.51800
C         -0.17050        1.26500        0.01960
C         -1.16070        0.09910       -0.04620
N         -0.32960       -1.06760        0.02770
C         -0.83080       -2.39950        0.26970
C         -1.82750       -2.82770       -0.80360
Ni         2.78020       -1.86970       -0.29550
Br         3.37510       -1.56270        2.10460
C          2.18240       -2.55720       -2.17890
C          1.36080       -1.86110       -2.96580
N          4.49560       -3.05820       -0.53040
C          5.49560       -3.17570        0.37630
O          6.46000       -3.95750       -0.04410
C          6.13920       -4.35800       -1.24620
C          4.91320       -3.82140       -1.56670
H          3.03340        1.09660        0.66220
H          2.14700        2.44750       -0.13460
H          3.36050        0.02630       -1.60470
H          3.97190        1.71320       -1.59990
H          2.38020        1.34500       -2.36750
H         -0.33920        1.97200       -0.81540
H         -0.23170        1.79700        0.99950
H         -1.68170        0.08220       -1.02850
H         -1.90380        0.16260        0.78480
H         -1.35260       -2.40110        1.23980
H          0.01210       -3.13770        0.32740
H         -2.67170       -2.10420       -0.85680
H         -2.25520       -3.81760       -0.54000
H         -1.33550       -2.89220       -1.79560
H          2.45280       -3.54080       -2.51750
H          1.00280       -0.87910       -2.68680
H          1.03490       -2.28620       -3.91070
H          5.52230       -2.72500        1.35020
H          6.76320       -4.97930       -1.87280
H          4.44880       -3.94920       -2.52580
