49

C          0.89930       -0.67960        0.04500
N          0.90350        0.67180        0.22660
C          2.01900        1.55730        0.55910
C         -0.37810        1.07940        0.15840
C         -1.16620       -0.02220       -0.06840
N         -0.37490       -1.11640       -0.11790
C         -0.83660       -2.45570       -0.45940
Ni         2.65840       -1.88140       -0.01350
Br         1.70100       -3.25850        1.96010
C          3.45320       -0.73840       -1.65190
C          2.88370        0.29580       -2.27500
P          4.63550       -3.28990       -0.08480
C          6.10850       -3.22370       -1.14310
C          5.51820       -2.73950        1.43650
C          5.85640       -3.65180        2.47210
C          6.53180       -3.21620        3.62990
C          6.87440       -1.87150        3.77660
C          6.56840       -0.96770        2.75830
C          5.90660       -1.39790        1.59640
C          4.13230       -5.04180       -0.05260
C          2.78150       -5.40250       -0.15090
C          2.39820       -6.74420       -0.16850
C          3.36450       -7.74860       -0.11910
C          4.71680       -7.40950       -0.04010
C          5.10150       -6.06400       -0.00170
H          2.96780        0.99300        0.64550
H          1.81430        2.02910        1.54820
H          2.11880        2.37500       -0.18760
H         -0.71760        2.10530        0.27460
H         -2.24000       -0.01660       -0.20150
H         -1.92540       -2.43500       -0.68890
H         -0.65960       -3.15490        0.37140
H         -0.31210       -2.80000       -1.37960
H          4.41910       -1.05720       -2.02520
H          1.91790        0.68840       -2.01080
H          3.40300        0.76620       -3.10490
H          6.48100       -2.17550       -1.14580
H          5.75040       -3.42180       -2.17820
H          6.92540       -3.91270       -0.87770
H          5.61460       -4.70310        2.39800
H          6.78980       -3.91500        4.42130
H          7.38020       -1.52710        4.67490
H          6.84340        0.07340        2.87170
H          5.69430       -0.67380        0.82690
H          2.01500       -4.65280       -0.22610
H          1.34960       -7.00140       -0.23320
H          3.06300       -8.78730       -0.15080
H          5.46580       -8.19100       -0.01380
H          6.15620       -5.83050        0.04860
