45

C          0.90100       -0.64300       -0.00200
N         -0.20090       -0.87140       -0.74050
C         -0.38760       -1.91980       -1.74410
C         -1.57900       -2.81360       -1.42580
C         -1.06710        0.11780       -0.43640
C         -0.46720        0.94230        0.48930
N          0.76550        0.46490        0.75270
C          1.73000        0.99210        1.71630
C          1.14200        0.96620        3.13130
Ni         2.65840       -1.88140       -0.01350
Br         3.66260       -0.43890       -1.91580
C          1.82490       -3.07890        1.56560
C          0.71960       -2.76820        2.24720
C          4.41590       -3.11990       -0.02500
N          5.62580       -2.71570       -0.21630
C          6.07650       -1.34150       -0.26020
C          6.57170       -3.80300       -0.15800
C          5.74170       -4.97950        0.35590
N          4.37930       -4.51040        0.26440
C          3.32990       -5.37270       -0.26280
H          0.53060       -2.54430       -1.82080
H         -0.55470       -1.43600       -2.73300
H         -1.41070       -3.34050       -0.46530
H         -1.69650       -3.56080       -2.23890
H         -2.50870       -2.21100       -1.36580
H         -2.05320        0.24070       -0.87130
H         -0.90220        1.82850        0.94150
H          1.99790        2.03480        1.44450
H          2.65110        0.36970        1.70770
H          0.23540        1.60530        3.19440
H          1.88870        1.34210        3.86100
H          0.86470       -0.06950        3.41930
H          2.31480       -3.99160        1.85510
H          0.13460       -1.88610        2.04220
H          0.36690       -3.43340        3.02910
H          5.28060       -0.63870        0.04880
H          6.53270       -1.09980       -1.24070
H          6.84350       -1.19410        0.53190
H          7.40470       -3.60430        0.55330
H          6.96680       -3.97120       -1.18210
H          5.95030       -5.14620        1.43480
H          5.95280       -5.90980       -0.21640
H          3.70750       -6.40880       -0.39930
H          2.97960       -5.00310       -1.24930
H          2.47240       -5.47060        0.42050
