48

C          0.90100       -0.64300       -0.00200
N          0.84120        0.65100       -0.39560
C          1.83620        1.42590       -1.13680
C          2.03570        0.78300       -2.52010
C         -0.42940        1.05320       -0.18500
C         -1.13640        0.00170        0.34720
N         -0.31140       -1.06090        0.45900
C         -0.65850       -2.32320        1.11190
C          0.22710       -2.54940        2.33650
Ni         2.65840       -1.88140       -0.01350
Br         3.92740       -0.09350        1.36530
C          1.60510       -3.36560       -1.15810
C          0.43890       -3.05670       -1.75180
N          4.37500       -3.09110       -0.02470
C          4.81550       -2.59170       -1.35810
C          5.45870       -2.65000        0.87670
C          4.26800       -4.57700       -0.08920
C          3.81860       -5.33820       -1.21210
C          3.61870       -6.72000       -1.15440
C          3.99190       -7.43580       -0.02910
C          4.59180       -6.77080        1.03030
C          4.71420       -5.37620        1.01270
H          2.79090        1.50610       -0.58920
H          1.44770        2.45110       -1.31580
H          2.46320       -0.23470       -2.43030
H          2.70640        1.40380       -3.14760
H          1.05610        0.70330       -3.04430
H         -0.82530        2.02920       -0.43480
H         -2.17870        0.01980        0.63370
H         -0.56700       -3.19310        0.44360
H         -1.72660       -2.29950        1.44410
H          1.29410       -2.60870        2.03250
H         -0.05150       -3.49790        2.83620
H          0.10250       -1.71270        3.05610
H          1.84350       -4.30180       -1.51900
H         -0.02250       -2.08740       -1.70930
H         -0.06850       -3.76530       -2.39980
H          4.05440       -1.89520       -1.75960
H          4.99420       -3.35800       -2.13220
H          5.77540       -2.02330       -1.38050
H          5.80900       -1.61350        0.73080
H          6.38540       -3.24220        0.69060
H          5.15740       -2.77350        1.93780
H          3.57090       -4.89360       -2.16300
H          3.17390       -7.23710       -1.99640
H          3.84450       -8.50800        0.00670
H          4.94710       -7.33720        1.88190
H          5.17280       -4.94990        1.89030
