49

P          0.95950       -0.07790       -0.04780
C          0.23280        1.53810       -0.70560
C         -1.27350        1.81200       -0.94470
C          0.78090        2.68720        0.15200
C          0.63910       -1.35790       -1.36800
C          1.25010       -2.68900       -0.93620
C         -0.84590       -1.59380       -1.66860
C          0.36090       -0.19460        1.74010
C         -1.17610       -0.20590        1.86520
C          0.77360       -1.49390        2.46220
Ni         3.41950       -0.07790       -0.04780
Br         3.21880        0.48780       -2.47870
C          3.55000       -0.09040        2.02070
C          3.58150        1.08790        2.64290
N          5.51950       -0.07790       -0.04780
C          6.20500        0.32160       -1.15670
C          7.58250        0.35480       -1.22240
F          8.23230        0.80110       -2.33690
C          8.31700       -0.07150       -0.12690
C          7.65260       -0.50690        1.00440
C          6.26060       -0.47410        1.04380
H          0.69340        1.64110       -1.71070
H         -1.87880        1.95650       -0.04320
H         -1.78010        1.11670       -1.61600
H         -1.35800        2.79350       -1.46160
H          0.32350        2.67530        1.16300
H          0.55560        3.67010       -0.31450
H          1.88380        2.60980        0.25150
H          1.10780       -1.06990       -2.32150
H          0.75390       -3.06880       -0.01300
H          2.33700       -2.58400       -0.73960
H          1.10650       -3.45640       -1.72080
H         -1.42230       -1.82700       -0.75010
H         -0.96700       -2.44070       -2.37570
H         -1.28290       -0.74460       -2.19890
H          0.75960        0.67900        2.28810
H         -1.61260       -1.10160        1.37300
H         -1.65490        0.68090        1.47470
H         -1.47520       -0.23590        2.93520
H          0.27400       -2.38130        2.03170
H          0.47830       -1.42740        3.53410
H          1.82640       -1.73560        2.44500
H          3.71200       -0.98870        2.59570
H          3.48310        2.00460        2.06950
H          3.71220        1.14810        3.71900
H          5.70130        0.66400       -2.05010
H          9.39270       -0.07190       -0.15140
H          8.20990       -0.86160        1.86530
H          5.81380       -0.84450        1.94840
