63

P          0.91290        0.03800       -0.03110
C          0.06460       -0.92870        1.36830
C         -1.44910       -0.89410        1.62660
C          0.45870       -2.41920        1.35590
C          0.56800        1.85420        0.26710
C         -0.91520        2.24840        0.25380
C          1.22340        2.37190        1.54020
C          0.47340       -0.78480       -1.65870
C          0.95850       -2.22650       -1.83730
C         -1.03070       -0.72820       -1.98760
Ni         3.37290        0.03800       -0.03110
Br         3.37290        1.48470       -2.17950
C          3.37290       -1.16280        1.75220
C          3.26150       -0.60240        2.95300
P          5.83290        0.03800       -0.03110
O          7.02070        0.67020        1.04470
C          8.35310        0.56300        0.63550
C          9.11820        1.62350        1.42720
O          6.04190       -1.34080        0.95060
C          6.24710       -2.48500        0.17340
C          7.28470       -3.37760        0.84810
O          6.36010        0.89580       -1.42610
C          6.24670        2.29490       -1.21350
C          6.32500        3.01580       -2.56200
H          0.54240       -0.49950        2.27340
H         -2.03480       -1.34250        0.80910
H         -1.84160        0.08730        1.88720
H         -1.66090       -1.50850        2.53210
H         -0.22170       -3.01600        0.72540
H          0.36930       -2.85000        2.37630
H          1.48480       -2.60120        1.00460
H          1.03020        2.38320       -0.58860
H         -1.45150        1.91960        1.15760
H         -1.44790        1.89050       -0.64540
H         -1.01320        3.35140        0.25920
H          0.81440        1.86230        2.43510
H          1.02350        3.46300        1.63610
H          2.32000        2.23040        1.48970
H          0.99100       -0.18940       -2.43590
H          0.36710       -2.94430       -1.24820
H          2.03370       -2.31640       -1.59740
H          0.79580       -2.53550       -2.89020
H         -1.63250       -1.30870       -1.26940
H         -1.22960       -1.16220       -2.99180
H         -1.40520        0.30760       -2.03260
H          3.50560       -2.23610        1.67680
H          3.15330        0.47080        3.04680
H          3.28550       -1.22080        3.84490
H          8.51010        0.77020       -0.44010
H          8.73210       -0.44110        0.90150
H          8.76600        2.65010        1.16140
H         10.20770        1.56150        1.19420
H          8.97770        1.47520        2.51560
H          6.63390       -2.27120       -0.86070
H          5.29300       -3.03460        0.09250
H          8.28010       -2.88190        0.86440
H          7.37320       -4.33900        0.29750
H          6.97790       -3.59750        1.89290
H          7.06780        2.68460       -0.58210
H          5.28910        2.56950       -0.72120
H          7.32700        2.87140       -3.01330
H          6.13710        4.10160       -2.42510
H          5.57700        2.62830       -3.28280
