59

P          1.06680        0.02900       -0.06850
C          0.22350        1.74090       -0.19800
C         -1.28570        1.95780       -0.34920
C          0.67350        2.70750        0.93310
C          0.66440       -0.89860       -1.64760
C         -0.84290       -1.10680       -1.92240
C          1.30350       -0.29530       -2.89040
C          0.55020       -0.67290        1.60920
C          0.93960        0.13650        2.84690
C         -0.96340       -0.98840        1.71990
Ni         3.52680        0.02900       -0.06850
Br         3.52680       -2.54910        0.17920
C          3.52680        2.16920       -0.27420
C          3.21490        2.79540       -1.40620
C          5.67680        0.02900       -0.06850
N          6.51020       -0.78870       -0.75780
C          6.15650       -1.72720       -1.81770
C          7.77220       -0.42670       -0.41420
C          9.05020       -0.95080       -0.98910
C          7.68850        0.56030        0.55890
C          8.84070        1.16370        1.31850
N          6.39820        0.86010        0.74970
C          5.88060        1.71890        1.82240
H          0.67630        2.14410       -1.12580
H         -1.84560        1.67260        0.54990
H         -1.72490        1.51530       -1.23980
H         -1.46270        3.04780       -0.48410
H          0.01350        2.64470        1.81080
H          0.59630        3.75840        0.58670
H          1.69590        2.53510        1.28740
H          1.08250       -1.91760       -1.51230
H         -1.34880       -0.18840       -2.23160
H         -1.38570       -1.56190       -1.08560
H         -0.98400       -1.79980       -2.77940
H          0.93400        0.73510       -3.06530
H          1.03660       -0.91680       -3.77830
H          2.40620       -0.30230       -2.79010
H          1.07350       -1.64360        1.68120
H          0.28540        1.01060        2.99930
H          2.00520        0.42990        2.81380
H          0.77190       -0.48660        3.75740
H         -1.58890       -0.08450        1.65590
H         -1.19690       -1.45110        2.70050
H         -1.29840       -1.72310        0.97390
H          3.75890        2.78690        0.57280
H          2.93690        2.24650       -2.29550
H          3.21270        3.88310       -1.42480
H          5.06390       -1.74410       -1.98760
H          6.54020       -2.73950       -1.58390
H          6.61820       -1.37580       -2.76950
H          8.87040       -1.68370       -1.79840
H          9.66630       -1.41940       -0.19540
H          9.61950       -0.09780       -1.42430
H          9.81770        0.76890        0.98210
H          8.73590        0.91460        2.39870
H          8.83350        2.26470        1.20160
H          6.66550        1.91310        2.57640
H          5.07050        1.18610        2.36390
H          5.60190        2.71660        1.45580
