30

C          0.90100       -0.64300       -0.00200
N         -0.35590       -1.12050        0.03890
C         -0.76240       -2.51860        0.08180
C         -1.16680       -0.05000        0.08890
C         -0.38080        1.08890        0.09620
N          0.91090        0.70450        0.05500
C          2.08220        1.56660        0.04300
Ni         2.65840       -1.88140       -0.01350
Br         2.43100       -2.18040       -2.57610
C          2.84720       -1.63330        2.11380
C          1.95090       -0.98850        2.86860
O          4.33420       -3.06230       -0.02450
C          5.04260       -3.52590        0.99910
N          6.11110       -4.23990        0.59790
C          6.05330       -4.20920       -0.73800
C          4.94240       -3.49670       -1.11390
H          0.12690       -3.18430        0.05390
H         -1.42530       -2.74910       -0.77640
H         -1.31190       -2.70840        1.02950
H         -2.24820       -0.08470        0.14060
H         -0.72720        2.11530        0.13750
H          1.77860        2.63640        0.07130
H          2.66400        1.39050       -0.88780
H          2.72200        1.35000        0.92210
H          3.67530       -1.98950        2.68290
H          1.04930       -0.54810        2.47640
H          2.12200       -0.89030        3.93700
H          4.84810       -3.42660        2.04030
H          6.78140       -4.66750       -1.39370
H          4.68770       -3.31040       -2.13770
