59

P         -1.25430       -0.27280        0.84380
N         -1.04940       -1.34610       -0.56020
C         -2.28770       -1.28420       -1.34740
C          0.11440       -1.39390       -1.44960
C          1.43260       -1.22660       -0.76350
N          1.77890        0.11310       -0.21740
C          1.18400        1.47140       -0.39030
C         -0.22400        1.60700       -0.98850
N         -1.37150        1.26680       -0.09160
C         -1.67270        2.39990        0.80820
N          0.14140       -0.84790        1.88200
C          0.08670       -2.19250        2.46090
C          1.41780       -0.07840        2.16740
C          2.47470       -0.03960        1.04110
Ni        -3.32260        0.00260        2.26790
Br        -4.80420        0.76340        0.28440
C         -2.09270       -0.62890        3.91440
C         -1.07020        0.09380        4.36610
N         -4.96310        0.04070        3.45440
C         -5.35180       -1.12410        4.06280
C         -4.76740       -2.43100        3.62960
C         -6.39800       -1.12170        4.97810
C         -7.04800        0.06830        5.30250
C         -6.66330        1.24590        4.66010
C         -5.62620        1.21610        3.70410
C         -5.14490        2.52340        3.14140
H         -3.17980       -1.35150       -0.68910
H         -2.34310       -2.13810       -2.04730
H         -2.34310       -0.33260       -1.92300
H          0.03840       -0.79400       -2.36680
H          0.12190       -2.43880       -1.83150
H          2.24740       -1.56730       -1.43260
H          1.42150       -1.99380        0.03870
H          1.89280        2.06310       -1.00480
H          1.16270        2.02670        0.57140
H         -0.31050        1.14290       -1.97200
H         -0.30910        2.67940       -1.27230
H         -1.81300        3.34130        0.21680
H         -0.87170        2.57000        1.55480
H         -2.63070        2.23790        1.33080
H         -0.95660       -2.51830        2.60530
H          0.57990       -2.19610        3.46230
H          0.61160       -2.93340        1.83320
H          1.16810        0.95490        2.46060
H          1.98000       -0.49780        3.03510
H          3.11700       -0.95600        1.00610
H          3.22100        0.78030        1.18700
H         -2.33530       -1.55110        4.42790
H         -0.79750        1.02550        3.88800
H         -0.48980       -0.26840        5.21050
H         -4.01700       -2.28910        2.82330
H         -5.58330       -3.04840        3.18790
H         -4.32540       -2.98340        4.48040
H         -6.72880       -2.04560        5.45640
H         -7.83290        0.08390        6.04010
H         -7.14800        2.17100        4.93470
H         -5.65230        3.38590        3.62420
H         -5.33640        2.61420        2.06410
H         -4.05810        2.62250        3.34850
