58

C          2.32700        0.03400        0.00000
N          1.51020        1.14450       -0.00240
C          1.85470        2.57490        0.18410
C          2.49240        2.74690        1.55970
C          2.74780        3.17810       -0.89680
C          0.24390        0.64890       -0.03110
C          0.29210       -0.71570       -0.07770
C         -0.87540       -1.49700       -0.11800
C         -2.11440       -0.84430       -0.08630
C         -2.17350        0.55900       -0.02100
C         -0.99140        1.32420        0.00520
N          1.58030       -1.12010       -0.07480
C          2.00990       -2.52160       -0.24400
C          2.15590       -2.96260       -1.70740
C          3.36610       -3.54170       -2.13030
C          3.51490       -4.03760       -3.43280
C          2.45950       -3.96070       -4.34190
C          1.25220       -3.38020       -3.95230
C          1.09490       -2.88470       -2.64590
Ni         4.47690        0.05800        0.00140
Br         4.29250        0.69790       -2.41710
C          4.50180       -0.48460        2.05860
C          3.44690       -0.64140        2.84730
N          6.57670        0.08150        0.00280
C          7.20380        0.85990       -0.93530
C          8.59500        0.87590       -1.07450
C          9.38070        0.05810       -0.26500
C         10.87000       -0.02130       -0.45840
C          8.75160       -0.71880        0.70720
C          7.35630       -0.68720        0.83530
H          0.93390        3.19150        0.17990
H          3.41500        2.13590        1.63200
H          1.77210        2.41280        2.33710
H          2.74610        3.81120        1.74660
H          3.74580        2.71620       -0.88380
H          2.91070        4.25640       -0.67580
H          2.26850        3.11000       -1.89670
H         -0.85350       -2.57660       -0.16090
H         -3.02850       -1.42610       -0.10630
H         -3.13980        1.04710        0.01000
H         -1.07180        2.39880        0.05480
H          1.23660       -3.19110        0.18610
H          2.92130       -2.71370        0.35470
H          4.19320       -3.63410       -1.44160
H          4.44770       -4.49610       -3.73490
H          2.57670       -4.35740       -5.34520
H          0.43540       -3.32990       -4.66510
H          0.13700       -2.46280       -2.38550
H          5.43590       -0.58790        2.58060
H          2.42980       -0.52360        2.51510
H          3.62370       -0.86050        3.90110
H          6.64240        1.50260       -1.58660
H          9.05060        1.50540       -1.82920
H         11.21370        0.64910       -1.27550
H         11.14100       -1.06170       -0.74260
H         11.40730        0.24830        0.47370
H          9.33570       -1.37380        1.34280
H          6.94760       -1.37450        1.54630
