87

P          1.09080       -0.03470        0.02360
C          0.13170        1.36470       -1.06370
C         -1.41960        1.43720       -1.18410
C          0.47680        2.80100       -0.57290
C          0.58150        1.32280       -2.55530
C          0.56170       -1.73030       -0.87020
C          1.10380       -1.98490       -2.30630
C          1.01850       -2.97670       -0.08890
C         -0.97620       -1.91760       -0.96030
C          0.37930        0.37120        1.83750
C         -1.18030        0.26150        1.99300
C          0.92650       -0.63080        2.86450
C          0.71750        1.76660        2.42850
Ni         3.55080       -0.03470        0.02360
Br         3.55080       -2.14990        1.51830
C          3.55080        1.72110       -1.21720
C          3.46270        3.06270       -1.20970
C          5.70080       -0.03470        0.02360
N          6.61770       -0.96760        0.59900
C          6.34590       -2.15520        1.42170
C          7.33060       -2.81310        2.41100
C          6.58760       -3.93390        3.17010
C          7.41750       -4.46040        4.33180
C          7.88190       -0.53770        0.32530
C          7.80840        0.64990       -0.29230
C          8.96630        1.37530       -0.66630
C         10.21680        0.81900       -0.41180
C         10.30850       -0.42120        0.21390
C          9.15010       -1.10580        0.59440
N          6.51400        1.00720       -0.45990
C          6.23910        2.34000       -0.94900
C          6.52800        2.52400       -2.41830
C          7.06350        1.47150       -3.19150
C          7.46890        1.68810       -4.50210
C          7.32420        2.95040       -5.07330
C          6.75770        3.99490       -4.33480
C          6.36270        3.78710       -3.00880
H         -1.94300        1.69980       -0.27400
H         -1.92230        0.61020       -1.66810
H         -1.69570        2.29740       -1.83800
H         -0.23620        3.19860        0.15860
H          0.38370        3.57050       -1.37620
H          1.43530        2.85890       -0.07990
H          0.12740        0.49680       -3.09380
H          1.65460        1.33150       -2.73580
H          0.19350        2.19520       -3.12920
H          2.20660       -1.92400       -2.35520
H          0.65990       -1.39360       -3.10470
H          0.80860       -3.01010       -2.63890
H          2.09060       -3.14900       -0.23050
H          0.58420       -3.91150       -0.51150
H          0.69710       -2.96610        0.96210
H         -1.43590       -1.28920       -1.71620
H         -1.48100       -1.83410        0.00710
H         -1.25090       -2.93030       -1.32880
H         -1.61870       -0.69420        1.68640
H         -1.74440        1.09380        1.57350
H         -1.48700        0.36040        3.05840
H          0.68920       -1.66780        2.59650
H          0.45240       -0.47570        3.86430
H          2.00790       -0.48180        3.01580
H          0.12890        2.58620        2.01100
H          1.79550        1.99760        2.39160
H          0.38380        1.82440        3.49250
H          3.69660        1.34520       -2.22480
H          3.38040        3.67240       -0.32250
H          3.53060        3.57210       -2.17480
H          5.90290       -2.94330        0.77390
H          5.76140       -1.70020        2.23510
H          7.69000       -2.03830        3.13390
H          8.16690       -3.34800        1.94520
H          6.37930       -4.76090        2.45370
H          5.61320       -3.58510        3.58040
H          8.42010       -4.77970        3.98100
H          6.90130       -5.32660        4.79690
H          7.52960       -3.66120        5.09560
H          8.93340        2.33100       -1.15970
H         11.11430        1.35110       -0.69860
H         11.28420       -0.85160        0.40720
H          9.33750       -2.04280        1.05250
H          6.99060        3.01410       -0.48150
H          5.55530        2.90450       -0.31180
H          7.21380        0.47960       -2.78720
H          7.91320        0.87390       -5.05950
H          7.65940        3.11600       -6.08620
H          6.64760        4.97380       -4.77920
H          5.95750        4.61130       -2.43560
