39

C         -0.22180       -1.25600       -0.01660
N         -1.13210       -0.20310       -0.09490
C         -2.59790       -0.21690       -0.09800
C         -0.38960        0.95530       -0.04490
C         -0.85300        2.41190       -0.03810
C          0.93730        0.61640        0.01160
C          2.10620        1.57660        0.01430
N          1.03540       -0.73120        0.04010
C          2.29730       -1.46560       -0.00080
Ni        -0.49020       -3.48260       -0.01010
Br        -1.49870       -3.32500       -2.39040
C          0.34710       -3.61350        1.96590
C          0.77930       -2.57310        2.68520
N         -0.80110       -5.49300       -0.01940
C         -2.02640       -5.98900       -0.36120
F         -3.05780       -5.14180       -0.58330
C         -2.26520       -7.36670       -0.31520
C         -1.21530       -8.23980       -0.03530
F         -1.42390       -9.58040       -0.03580
C          0.04780       -7.72640        0.24820
C          0.22350       -6.33760        0.30720
F          1.46590       -5.84460        0.53520
H         -2.99600       -1.24760       -0.06800
H         -2.99390        0.32140       -0.98660
H         -2.97650        0.32570        0.80320
H         -1.94910        2.56370       -0.05040
H         -0.41900        2.95780       -0.90800
H         -0.45530        2.92700        0.86980
H          1.80100        2.64370       -0.01210
H          2.72910        1.39450       -0.88660
H          2.71790        1.42210        0.92560
H          3.16280       -0.77320       -0.02580
H          2.32410       -2.06780       -0.92910
H          2.43390       -2.11220        0.87400
H          0.38150       -4.58790        2.44050
H          0.71900       -1.55810        2.33120
H          1.18450       -2.71930        3.67870
H         -3.26060       -7.75410       -0.48480
H          0.88030       -8.40040        0.41910
