121

C          1.02400       -0.65300       -0.05500
N         -0.09490       -1.05770        0.64120
C         -0.51630       -2.27930        1.42540
C         -1.81780       -2.52840        2.10250
C         -3.04100       -1.62320        2.26870
C         -2.03920       -3.78040        2.76760
C         -1.06740       -4.78160        2.78110
C         -1.20630       -6.15390        3.34920
C          0.14900       -4.50750        2.27080
C          0.41620       -3.30350        1.69220
C          1.75310       -3.14050        1.34240
C         -1.06120       -0.01410        0.66180
C         -0.37720        1.19830        0.25860
N          0.89350        0.89170       -0.27700
C          1.61210        2.24330       -0.52970
C          1.08280        3.57130        0.02760
C         -0.29170        3.98780        0.64940
C          1.93330        4.68830        0.16790
C          3.22690        4.70580       -0.25550
C          4.14310        5.82530        0.26820
C          3.65360        3.64650       -1.05930
C          2.87940        2.42900       -1.22220
C          3.57080        1.32470       -1.94970
Ni         2.78020       -1.86970       -0.29550
Br         4.06350       -0.34430        1.35800
C          1.71490       -3.13610       -1.66810
C          2.52910       -3.79430       -2.62370
C          4.53640       -3.08650       -0.53600
N          5.82440       -2.47180       -0.60250
C          6.60710       -1.04570       -0.60620
C          6.63410        0.39130        0.14440
C          5.89010        1.48140        1.16560
C          4.53750        2.31320        1.43740
C          6.38610        1.20470        2.59770
C          7.87880        1.08720        0.00470
C          8.87860        0.87300       -0.82390
C          8.67320       -0.01860       -1.76550
C          7.58610       -0.92550       -1.76300
C          7.49520       -1.54750       -3.19340
C          7.13900       -0.38440       -4.20230
C          8.81420       -2.18160       -3.71680
C          6.54060       -3.56540       -0.91170
C          5.73690       -4.76370       -1.03170
N          4.38690       -4.48700       -0.82960
C          3.07300       -5.56440       -0.69900
C          3.39800       -6.93940       -0.14990
C          4.72740       -7.75870       -0.15650
C          5.12070       -8.54110        1.12760
C          4.61710       -8.73830       -1.35230
C          2.39960       -7.78970        0.37700
C          1.10740       -7.48620        0.47240
C          0.63850       -6.46180       -0.23440
C          1.39380       -5.59990       -1.06320
C          0.07120       -4.93700       -2.13560
C          0.05540       -4.11560       -3.63290
C         -1.34900       -5.55260       -2.10920
H         -3.17990       -0.73250        1.65290
H         -3.06730       -1.29230        3.33650
H         -3.97580       -2.18750        2.07900
H         -2.98590       -3.99390        3.25350
H         -2.15840       -6.30360        3.87990
H         -0.34510       -6.34960        4.02970
H         -1.12400       -6.87740        2.50460
H          0.93410       -5.25360        2.32870
H          2.46100       -3.97660        1.38000
H          2.10620       -2.19090        1.76860
H          1.40670       -3.13040        0.40670
H         -1.40110        0.21050        1.69850
H         -1.88490       -0.24790       -0.04870
H         -0.12840        1.67960        1.21880
H         -1.00120        1.76200       -0.46790
H         -1.14400        3.82250       -0.03800
H         -0.48270        3.60800        1.67170
H         -0.40340        5.08520        0.82760
H          1.61000        5.57520        0.71270
H          3.61740        6.49910        0.99120
H          4.64140        6.45290       -0.48860
H          4.94590        5.38320        0.89970
H          4.66750        3.71660       -1.43350
H          4.59710        1.63300       -2.26100
H          3.00680        1.04490       -2.85820
H          3.67790        0.46540       -1.27360
H          0.72390       -2.76960       -1.69050
H          3.58070       -3.82950       -2.66280
H          2.26450       -4.42260       -3.43580
H          6.06710        2.37250        0.49370
H          3.88650        2.00280        2.28480
H          3.81670        2.06920        0.72980
H          4.62720        3.39260        1.63400
H          5.93590        0.26440        2.97290
H          6.02640        1.96240        3.32460
H          7.46130        1.01080        2.64210
H          8.10130        1.98040        0.59880
H          9.73510        1.53940       -0.82000
H          9.41580        0.07230       -2.53820
H          6.67580       -2.28600       -3.27020
H          7.86850        0.46210       -4.17930
H          6.14650        0.06440       -3.98200
H          7.12840       -0.71710       -5.26400
H          9.65300       -1.46140       -3.83330
H          8.67970       -2.56390       -4.75100
H          9.14570       -2.98920       -3.04590
H          7.59410       -3.61360       -1.07480
H          6.20550       -5.67350       -1.23930
H          5.61370       -7.22620       -0.35070
H          4.38730       -9.28270        1.49360
H          5.35710       -7.84130        1.95030
H          6.02390       -9.15700        0.91790
H          3.75410       -9.43410       -1.25450
H          5.53600       -9.35080       -1.46700
H          4.48320       -8.16050       -2.29500
H          2.58370       -8.76930        0.76850
H          0.41570       -8.15450        0.98070
H         -0.42980       -6.44600       -0.15010
H         -0.42520       -4.17980       -1.50860
H          0.42010       -4.73610       -4.48340
H          0.43540       -3.04790       -3.72800
H          0.51810       -4.44130       -4.60240
H         -1.27970       -6.61740       -2.32990
H         -2.02780       -5.02750       -2.83040
H         -1.90920       -5.39010       -1.13560
