62

P          1.02240       -0.09710       -0.00830
C          0.13470        0.53830       -1.66930
C         -1.41260        0.62200       -1.75940
C          0.66040        1.95750       -2.03140
C          0.49490       -0.31520       -2.91120
C          0.66200       -2.03270        0.06850
C          1.36440       -2.85400       -1.03650
C          1.16370       -2.68160        1.38420
C         -0.84520       -2.41010        0.03220
C          0.23230        1.07800        1.37900
C         -1.32060        0.94260        1.45130
C          0.71310        0.70850        2.79380
C          0.51160        2.59870        1.28700
Ni         3.48240       -0.09710       -0.00830
Br         3.45630       -0.64670        2.41460
C          3.71580        0.34150       -2.02610
C          4.28750        1.51200       -2.33820
C          5.63240       -0.09710       -0.00830
N          6.47420       -0.43960       -1.04490
C          6.24470       -1.08860       -2.32760
C          7.74150       -0.24230       -0.59220
Cl         9.21080       -0.55710       -1.49800
C          7.68350        0.20300        0.69070
Cl         9.08340        0.62980        1.67150
N          6.39290        0.26960        1.07580
C          5.99090        0.90400        2.33630
H         -1.86360        1.41190       -1.17310
H         -1.93000       -0.32880       -1.59830
H         -1.71270        0.93150       -2.78750
H          0.29770        2.75030       -1.39250
H          0.30430        2.28720       -3.03300
H          1.75730        2.01230       -2.04290
H         -0.06330       -1.25830       -2.94850
H          1.55130       -0.49610       -3.03220
H          0.18770        0.18850       -3.85740
H          2.45730       -2.67570       -1.03360
H          0.97710       -2.71200       -2.04230
H          1.19120       -3.94260       -0.86720
H          2.25340       -2.68590        1.44700
H          0.88740       -3.76010        1.42920
H          0.68590       -2.25700        2.28260
H         -1.33770       -2.14720       -0.90840
H         -1.40500       -2.04120        0.90420
H         -0.98220       -3.51270        0.10070
H         -1.68430       -0.07400        1.31400
H         -1.84660        1.61730        0.77510
H         -1.73510        1.29140        2.42040
H          0.59610       -0.35210        3.03280
H          0.13570        1.24320        3.58060
H          1.73170        1.08580        2.96610
H         -0.05490        3.11400        0.50740
H          1.59530        2.82260        1.22600
H          0.10690        3.11210        2.19090
H          3.53240       -0.35160       -2.82530
H          4.56260        2.21590       -1.55560
H          4.51060        1.77400       -3.36890
H          5.23360       -1.50450       -2.40220
H          6.87210       -2.00100       -2.37820
H          6.51340       -0.41960       -3.17090
H          6.81340        1.52160        2.74980
H          5.79390        0.15470        3.12330
H          5.16230        1.62160        2.15140
