36

C         -0.28490       -1.30870        0.07380
N          0.69370       -0.50530       -0.49210
C          1.81360       -0.80410       -1.37130
C          0.39770        0.76210       -0.11380
Cl         1.30410        2.21120       -0.56000
C         -0.71220        0.74520        0.67660
Cl        -1.44280        2.16370        1.43070
N         -1.13050       -0.52460        0.79360
C         -2.25870       -0.97770        1.60070
Ni        -0.49020       -3.48260       -0.01010
Br         0.87350       -3.68450        2.18260
C         -1.62220       -3.31510       -1.83020
C         -2.28630       -2.20800       -2.16730
N         -0.77020       -5.59520       -0.11020
C         -1.77900       -6.28480       -0.81400
C         -2.99080       -5.68420       -1.47540
C         -1.85020       -7.68810       -0.80890
C         -0.97500       -8.42890       -0.04940
C         -0.01560       -7.77390        0.69170
C          0.08080       -6.37960        0.63670
H          1.88880       -1.87940       -1.60270
H          2.75970       -0.44230       -0.90680
H          1.69290       -0.23350       -2.32470
H         -2.73680       -0.11550        2.11440
H         -1.88540       -1.66980        2.38120
H         -3.00900       -1.46870        0.95880
H         -1.61940       -4.11230       -2.54130
H         -2.34650       -1.35720       -1.50390
H         -2.82350       -2.16510       -3.10950
H         -3.27630       -4.74490       -0.97000
H         -3.90380       -6.26990       -1.26240
H         -2.90200       -5.71430       -2.58700
H         -2.62900       -8.20920       -1.35550
H         -1.06720       -9.50650       -0.02060
H          0.65800       -8.34750        1.31430
H          0.87400       -5.97380        1.21550
