64

C          1.02400       -0.65300       -0.05500
N          1.03760        0.66250       -0.01860
C          2.19860        1.59030        0.00900
C          3.47960        1.29660       -0.59670
C          3.76410        0.16270       -1.53430
C          4.59700        2.13720       -0.38650
C          4.50460        3.30060        0.36260
C          5.69990        4.17550        0.64140
C          3.26900        3.67410        0.85120
C          2.12350        2.87880        0.69060
C          0.89130        3.48230        1.32200
C         -0.33300        1.10930        0.10490
C         -1.17420       -0.11190       -0.20260
N         -0.28780       -1.21710        0.02250
C         -0.67400       -2.61650        0.21020
C         -1.92240       -3.15710       -0.29680
C         -3.05010       -2.42640       -1.00620
C         -2.21030       -4.52820       -0.14930
C         -1.35440       -5.39170        0.51490
C         -1.64950       -6.85590        0.63830
C         -0.21570       -4.88660        1.10080
C          0.13560       -3.53590        0.98570
C          1.33820       -3.16300        1.80100
Ni         2.78020       -1.86970       -0.29550
Br         1.78750       -2.87330       -2.46700
C          3.60420       -1.03660        1.50710
C          2.98300       -0.19780        2.34430
O          4.45470       -3.02990       -0.52480
C          4.78360       -3.68750       -1.62330
N          5.91130       -4.40670       -1.46650
C          6.28100       -4.17480       -0.19900
C          5.37770       -3.31610        0.37640
H          2.85770       -0.37710       -1.82760
H          4.54700       -0.50390       -1.11580
H          4.16560        0.58150       -2.48430
H          5.56050        1.88270       -0.81900
H          6.63190        3.76940        0.19650
H          5.85050        4.24460        1.74190
H          5.53210        5.20070        0.24880
H          3.22120        4.60940        1.40330
H          1.07440        4.48920        1.75350
H          0.53930        2.86590        2.16750
H          0.11580        3.65710        0.55020
H         -0.59040        1.91610       -0.61510
H         -0.52390        1.38030        1.15440
H         -1.39190       -0.08070       -1.29200
H         -2.06990       -0.10490        0.45780
H         -3.01400       -1.34950       -1.12730
H         -3.98580       -2.59130       -0.42520
H         -3.18810       -2.84900       -2.02090
H         -3.12900       -4.93250       -0.56020
H         -2.59950       -7.12970        0.13500
H         -1.71360       -7.13780        1.70950
H         -0.82290       -7.42990        0.16540
H          0.40800       -5.57310        1.66480
H          1.69840       -3.99060        2.45060
H          1.10880       -2.31660        2.48080
H          2.18670       -3.02400        1.16610
H          4.60120       -1.26460        1.81900
H          1.96790        0.13430        2.21130
H          3.50670        0.16960        3.22180
H          4.25190       -3.67800       -2.55530
H          7.14100       -4.62030        0.28350
H          5.44190       -3.02350        1.40330
