80

C          1.02400       -0.65300       -0.05500
N          0.87700        0.65400        0.05700
C          1.82380        1.75020        0.33870
C          3.18800        1.84600       -0.13660
C          3.82620        0.94910       -1.13530
C          4.02930        2.90110        0.27890
C          3.57530        3.89260        1.13760
C          4.45350        4.99850        1.63880
C          2.26480        3.87260        1.54940
C          1.38480        2.85800        1.17270
C          0.00210        3.03920        1.75350
C         -0.54860        0.94340       -0.10980
C         -1.16600       -0.28580       -0.68630
N         -0.28440       -1.31150       -0.24410
C         -0.74210       -2.61300        0.27740
C         -0.04250       -3.80390       -0.06240
C          0.95570       -3.81400       -1.14160
C         -0.39790       -5.05850        0.43660
C         -1.49610       -5.21090        1.26090
C         -1.88210       -6.57090        1.76650
C         -2.26610       -4.09590        1.56770
C         -1.93360       -2.80330        1.09500
C         -2.91670       -1.72770        1.51170
Ni         2.78020       -1.86970       -0.29550
Br         3.08790       -1.93370        2.27540
C          2.52480       -1.81660       -2.42960
C          1.65660       -1.03660       -3.08820
C          4.53640       -3.08650       -0.53600
N          5.28820       -3.17330       -1.60460
C          5.37770       -2.25420       -2.72820
C          6.37590       -4.09230       -1.42470
C          6.44660       -4.27180        0.06630
N          5.12920       -3.90540        0.52930
C          4.52120       -4.84520        1.49700
C          5.37220       -5.56120        2.39040
C          4.89460       -6.55910        3.25120
C          3.54470       -6.87890        3.26620
C          2.66850       -6.19100        2.43260
C          3.14910       -5.17760        1.56190
H          3.09120        0.27310       -1.50930
H          4.70010        0.41510       -0.71010
H          4.17330        1.55310       -2.00910
H          5.05310        2.95660       -0.07830
H          5.48680        4.92260        1.24730
H          4.48920        4.93870        2.74940
H          4.02250        5.98230        1.35440
H          1.92870        4.67470        2.19690
H         -0.10600        3.93900        2.39030
H         -0.23930        2.17950        2.40870
H         -0.73570        3.21130        0.94230
H         -0.74380        1.78020       -0.82240
H         -1.04870        1.03290        0.86140
H         -1.07770       -0.26790       -1.79280
H         -2.23790       -0.37380       -0.50620
H          0.63050       -3.02010       -1.81530
H          0.83190       -4.69740       -1.79690
H          1.99200       -3.78200       -0.80210
H          0.16580       -5.93540        0.13690
H         -1.15640       -7.34830        1.44170
H         -2.88410       -6.84830        1.37560
H         -1.90820       -6.56140        2.87510
H         -3.15150       -4.25470        2.17470
H         -3.68310       -2.11020        2.22380
H         -3.54230       -1.41060        0.65480
H         -2.40500       -0.88250        2.00800
H          3.04160       -2.52430       -3.05030
H          1.03260       -0.31780       -2.58640
H          1.55670       -1.12530       -4.16520
H          4.84040       -1.30840       -2.56230
H          5.16200       -2.77060       -3.68580
H          6.42150       -1.87570       -2.79930
H          7.36300       -3.73590       -1.79600
H          6.09140       -5.03600       -1.93980
H          7.15340       -3.55300        0.52330
H          6.76240       -5.32190        0.25890
H          6.43340       -5.37760        2.41910
H          5.58400       -7.10000        3.88990
H          3.18580       -7.66880        3.91790
H          1.61910       -6.46230        2.45080
H          2.41680       -4.72330        0.94630
