70

C          1.02400       -0.65300       -0.05500
N          1.06540        0.62620        0.06340
C          2.28830        1.41380        0.16740
C          2.39010        2.41580       -0.98870
C          2.31890        2.16180        1.51080
C         -0.27030        1.18400        0.15900
C         -1.19630        0.00180       -0.12670
N         -0.31070       -1.13550       -0.06220
C         -0.75160       -2.52570       -0.07090
C         -1.67380       -2.79830        1.13670
C         -1.50530       -2.85600       -1.36230
Ni         2.78020       -1.86970       -0.29550
Br         2.59260       -1.63210       -2.86770
C          2.93590       -2.06700        1.83980
C          1.95090       -2.54140        2.59110
P          4.78960       -3.26190       -0.57060
C          5.58470       -3.18490       -2.21590
C          6.01010       -1.91820       -2.67250
C          6.47250       -1.72240       -3.97260
C          6.51000       -2.79290       -4.85890
C          6.09090       -4.05770       -4.43850
C          5.62920       -4.26000       -3.12820
C          5.95060       -2.59180        0.65160
C          6.50720       -3.44530        1.62130
C          7.44060       -2.95770        2.54230
C          7.82860       -1.61660        2.50750
C          7.26840       -0.75610        1.56330
C          6.32930       -1.23640        0.64640
C          4.25030       -4.96430       -0.36640
C          5.20920       -5.99000       -0.42920
C          4.81480       -7.31600       -0.27890
C          3.48150       -7.61590       -0.04710
C          2.54150       -6.58080        0.02850
O          1.37230       -6.83430        0.24320
N          2.94410       -5.27240       -0.13420
H          3.17810        0.74550        0.12490
H          1.52560        3.11310       -0.99590
H          2.42660        1.87600       -1.95760
H          3.31540        3.02270       -0.88800
H          1.46840        2.87380        1.59100
H          3.25840        2.74500        1.61130
H          2.25840        1.44090        2.35310
H         -0.46370        2.00700       -0.55930
H         -0.41890        1.54080        1.20160
H         -1.60120        0.05110       -1.16180
H         -2.02150       -0.02000        0.61350
H          0.13080       -3.19640       -0.00720
H         -2.58620       -2.16600        1.09950
H         -1.16230       -2.58680        2.09610
H         -2.00460       -3.85840        1.14550
H         -2.41320       -2.22360       -1.46590
H         -1.82670       -3.92050       -1.34980
H         -0.84640       -2.69720       -2.23970
H          3.87720       -1.81320        2.31420
H          1.02720       -2.85200        2.14000
H          2.08830       -2.65120        3.66240
H          5.94680       -1.04630       -2.05500
H          6.76860       -0.73300       -4.29500
H          6.84140       -2.62940       -5.87680
H          6.09610       -4.87640       -5.14630
H          5.26390       -5.23890       -2.87430
H          6.23230       -4.48800        1.66230
H          7.87190       -3.62220        3.27970
H          8.55880       -1.24220        3.21380
H          7.56290        0.28560        1.53950
H          5.90910       -0.53380       -0.05010
H          6.25200       -5.76090       -0.60830
H          5.55720       -8.10880       -0.33970
H          3.17740       -8.65150        0.07850
H          2.23710       -4.50590       -0.07480
