49

C          1.02400       -0.65300       -0.05500
N          1.02840        0.64980        0.03090
C          2.13630        1.61590        0.08480
C          3.53680        1.03350        0.24400
C          2.12850        2.54260       -1.14180
C         -0.33750        1.15020        0.15130
C         -1.21000       -0.04500       -0.15270
N         -0.30670       -1.15880       -0.02570
C         -0.70300       -2.45680        0.49640
C         -1.26060       -2.30940        1.92800
C         -1.77620       -3.08780       -0.40210
Ni         2.78020       -1.86970       -0.29550
Br         2.46340       -1.81900       -2.86550
C          3.04320       -1.91180        1.83800
C          2.65070       -2.98570        2.52310
N          4.49560       -3.05820       -0.53040
C          5.53290       -2.03830       -0.81280
C          5.01220       -3.70160        0.70180
C          4.46780       -3.97000       -1.69290
H          1.98330        2.26210        0.98640
H          3.78950        0.33320       -0.58080
H          3.62840        0.56250        1.21850
H          4.28510        1.85160        0.26020
H          2.32400        1.96450       -2.07030
H          2.91630        3.32600       -1.03720
H          1.16750        3.08640       -1.25010
H         -0.58630        1.97000       -0.55280
H         -0.47240        1.50150        1.20010
H         -1.51040       -0.01310       -1.22300
H         -2.12270       -0.07070        0.47660
H          0.18540       -3.12390        0.53890
H         -2.19960       -1.71330        1.94740
H         -0.51960       -1.80530        2.58300
H         -1.49970       -3.30330        2.35850
H         -2.68330       -2.44250       -0.43700
H         -2.07880       -4.07860       -0.00340
H         -1.39290       -3.21300       -1.43410
H          3.29840       -1.05280        2.43850
H          2.24490       -3.84640        2.00440
H          2.68020       -2.98240        3.60870
H          5.60090       -1.29700        0.01420
H          5.27250       -1.45860       -1.72330
H          6.53940       -2.49370       -0.97270
H          5.25580       -2.98680        1.51650
H          5.94340       -4.27770        0.50330
H          4.27300       -4.44530        1.06140
H          4.48220       -3.44840       -2.66770
H          3.56590       -4.61460       -1.63070
H          5.36160       -4.63240       -1.70640
