61

P          1.02110       -0.04430       -0.08710
C          0.05250        1.70390       -0.04140
C         -1.50220        1.78770       -0.02610
C          0.43810        2.55630        1.20600
C          0.44210        2.56730       -1.26180
C          0.66620       -0.70860       -1.92600
C          1.38220        0.10660       -3.03960
C          1.13000       -2.16100       -2.20550
C         -0.84060       -0.78310       -2.30120
C          0.25430       -1.00730        1.43710
C         -1.29150       -1.16070        1.32730
C          0.80290       -2.44020        1.48960
C          0.51360       -0.43920        2.85540
Ni         3.48110       -0.04430       -0.08710
Br         3.48110       -2.62240       -0.33510
C          3.48110        2.09580        0.11880
C          3.66080        3.11110       -0.72500
N          5.58110       -0.04430       -0.08710
C          6.32800       -0.94370       -0.82140
C          5.74150       -1.69530       -1.98190
C          7.72240       -0.98190       -0.70670
C          8.37170       -0.08070        0.11690
C          7.62670        0.86690        0.79720
C          6.23370        0.90620        0.65250
H         -1.95880        1.52420        0.92470
H         -2.02290        1.29560       -0.84590
H         -1.80750        2.85720       -0.11770
H          0.03420        2.18830        2.14120
H          0.01370        3.58270        1.14790
H          1.49050        2.72440        1.36910
H         -0.17720        2.32640       -2.14100
H          1.49630        2.47110       -1.53530
H          0.24220        3.65170       -1.10570
H          2.46780        0.16380       -2.85010
H          0.98750        1.09390       -3.23950
H          1.23080       -0.39320       -4.03040
H          2.20240       -2.21210       -2.39510
H          0.76030       -2.53280       -3.18170
H          0.75470       -2.90740       -1.48280
H         -1.32060        0.18520       -2.35370
H         -1.40050       -1.50820       -1.68900
H         -0.97370       -1.17170       -3.33470
H         -1.63820       -1.42180        0.32750
H         -1.84020       -0.28920        1.68310
H         -1.68650       -1.94720        2.00350
H          0.61290       -2.99310        0.56470
H          0.29680       -3.03330        2.28530
H          1.87230       -2.43390        1.75770
H         -0.06180        0.45970        3.08910
H          1.58980       -0.29170        3.06470
H          0.10430       -1.14190        3.62080
H          3.45330        2.35780        1.16790
H          3.78890        2.99500       -1.79000
H          3.67690        4.11640       -0.29430
H          4.70960       -1.35560       -2.19730
H          5.83920       -2.79520       -1.87380
H          6.28210       -1.39050       -2.90500
H          8.31330       -1.65560       -1.32730
H          9.45000       -0.10110        0.21180
H          8.12760        1.58990        1.43880
H          5.68640        1.63410        1.23030
