38

N         -1.50580       -0.46670        0.33100
C         -1.04610        0.05710        1.52300
C          0.30950        0.03910        1.85490
Cl         0.86440        0.69520        3.38580
C          1.23880       -0.44660        0.93780
C          0.79100       -0.96350       -0.26570
C         -0.57760       -0.98120       -0.54110
Ni        -3.47560       -0.20170       -0.28210
Br        -3.75040        1.74710        1.40150
C         -3.24750       -1.81950       -1.67960
C         -3.91610       -2.00510       -2.81940
P         -5.81970        0.28350       -0.77110
N         -7.34670        1.21400       -0.75000
C         -7.26430        2.35380        0.20690
C         -7.36030        1.85920       -2.08390
O         -6.35030       -0.90120       -1.87870
C         -6.32460       -2.19850       -1.28950
O         -6.08790        0.12440        0.93800
C         -7.31460       -0.58360        1.20690
H         -1.71420        0.46430        2.25090
H          2.29920       -0.41510        1.14990
H          1.49950       -1.30010       -1.01070
H         -0.81480       -1.28290       -1.53550
H         -2.39080       -2.47020       -1.64680
H         -4.64670       -1.31310       -3.18930
H         -3.60630       -2.79160       -3.50210
H         -7.14560        2.07100        1.26840
H         -8.21140        2.93950        0.19550
H         -6.40700        3.03570       -0.01090
H         -7.37750        1.11830       -2.90310
H         -6.44960        2.49370       -2.23310
H         -8.24830        2.52390       -2.19310
H         -6.19580       -2.95000       -2.09870
H         -7.27230       -2.47030       -0.80410
H         -5.47660       -2.35180       -0.58670
H         -7.15100       -1.53600        1.75030
H         -7.95440       -0.81810        0.32560
H         -7.99430        0.05640        1.80970
