43

P          1.00090       -0.08010       -0.05980
O         -0.41950       -0.99860        0.17620
C         -0.14860       -2.28220       -0.37510
O          0.68520        1.07550        1.15750
C          0.79030        0.48740        2.43080
O          0.69540        0.21440       -1.72540
C         -0.65030        0.63640       -1.88300
Ni         3.46090       -0.08010       -0.05980
Br         3.46090        2.39640       -0.81780
C          3.46090       -2.13600        0.56940
C          3.50040       -3.16170       -0.27700
P          5.92090       -0.08010       -0.05980
N          6.87000       -1.57710       -0.17950
C          6.67760       -2.15120       -1.52820
C          8.30020       -1.55100        0.17820
O          7.34820        0.81620       -0.37020
C          7.01760        1.99360       -1.05040
O          5.69770       -0.58660        1.54400
C          5.62240        0.60690        2.30110
H         -0.74190       -3.06360        0.15920
H          0.90070       -2.63340       -0.27060
H         -0.41970       -2.31910       -1.45070
H          0.06860        1.00350        3.09960
H          1.81220        0.64270        2.83150
H          0.50900       -0.58820        2.46990
H         -0.78710        1.07740       -2.89150
H         -0.95240        1.41360       -1.14070
H         -1.36250       -0.21810       -1.84590
H          3.43500       -2.33040        1.63670
H          3.52240       -3.00260       -1.34600
H          3.50710       -4.17660        0.11340
H          5.60040       -2.16200       -1.79430
H          7.01710       -3.21480       -1.54900
H          7.21100       -1.56190       -2.29710
H          8.43380       -1.10410        1.17940
H          8.89460       -1.00190       -0.58120
H          8.69010       -2.59430        0.20500
H          7.79410        2.18060       -1.83180
H          7.01230        2.85010       -0.34680
H          6.06570        1.96040       -1.62350
H          5.38110        0.36430        3.35440
H          4.80920        1.28630        1.94680
H          6.60170        1.14070        2.30740
