26

N         -0.65900       -1.22800       -0.05100
C         -1.04530       -0.15760       -0.79910
F         -2.01490       -0.30240       -1.73410
C         -0.34610        1.05180       -0.69380
C          0.68250        1.17080        0.24000
C          1.04090        0.06930        1.02010
C          0.38370       -1.14440        0.81950
Ni        -1.57560       -3.10440       -0.27260
Br         0.48570       -3.95580       -1.58940
C         -3.28680       -2.39750        0.82050
C         -3.32340       -1.21180        1.43430
N         -2.49230       -4.98070       -0.49410
C         -1.93000       -6.07170       -1.04940
O         -2.73410       -7.10730       -1.06130
C         -3.85960       -6.72290       -0.51740
C         -3.73160       -5.40340       -0.15270
H         -0.59120        1.88800       -1.33650
H          1.21590        2.10570        0.35630
H          1.82040        0.15110        1.76820
H          0.64510       -2.00650        1.41970
H         -4.18640       -2.96740        0.91270
H         -2.49130       -0.52570        1.43050
H         -4.22150       -0.90880        1.96430
H         -0.92750       -6.13560       -1.44440
H         -4.73270       -7.35000       -0.38740
H         -4.52590       -4.85380        0.30830
