52

N         -0.66610       -1.24810       -0.06680
C         -1.17960       -0.31600        0.80220
F         -2.27470       -0.61810        1.54410
C         -0.63360        0.97650        0.87360
C          0.46100        1.29710        0.06910
C          0.98790        0.33910       -0.79680
C          0.39700       -0.92760       -0.85980
Ni        -1.61210       -3.07310       -0.25930
Br        -1.73930       -2.43190       -2.66410
C         -1.32860       -3.48840        1.77300
C         -0.33330       -3.00890        2.51480
P         -2.71460       -5.27560       -0.52310
C         -3.69420       -5.90520        0.86250
C         -5.08720       -6.18690        0.87880
C         -5.69850       -6.62680        2.06460
C         -4.94960       -6.79870        3.22890
C         -3.58860       -6.53270        3.21630
C         -2.98740       -6.09740        2.04670
C         -3.75250       -5.28570       -1.99600
C         -3.52200       -6.19550       -3.04070
C         -4.25620       -6.13060       -4.22370
C         -5.23550       -5.15480       -4.38160
C         -5.51790       -4.28200       -3.32860
C         -4.80040       -4.36600       -2.12750
C         -1.33140       -6.54960       -0.62960
C         -1.63760       -7.91660       -0.80830
C         -0.60800       -8.87060       -0.78020
C          0.71970       -8.47490       -0.60680
C          1.00230       -7.12460       -0.44970
O          2.15380       -6.75700       -0.28800
N         -0.01750       -6.20400       -0.45890
H         -1.05440        1.71800        1.54190
H          0.89590        2.28740        0.11050
H          1.82940        0.57890       -1.43490
H          0.79800       -1.67760       -1.52240
H         -2.02430       -4.09620        2.26600
H          0.43340       -2.38020        2.10020
H         -0.25250       -3.28380        3.56050
H         -5.73930       -6.11440        0.03010
H         -6.75720       -6.84650        2.08140
H         -5.42130       -7.15250        4.13640
H         -2.99270       -6.68760        4.10830
H         -1.91310       -5.93610        2.06860
H         -2.76180       -6.94810       -2.98630
H         -4.04050       -6.82270       -5.02850
H         -5.77560       -5.08150       -5.31660
H         -6.28320       -3.52810       -3.45040
H         -5.04400       -3.68960       -1.32620
H         -2.66680       -8.23950       -0.91660
H         -0.83690       -9.92330       -0.86830
H          1.51900       -9.20690       -0.58010
H          0.25250       -5.21940       -0.28390
