30

N         -1.38230       -0.22410       -0.27650
C         -0.71370        0.95390       -0.06130
C          0.67050        1.02250        0.06360
C          1.42740       -0.12940       -0.05000
Cl         3.17510       -0.04010        0.08050
C          0.77780       -1.34420       -0.23760
C         -0.62340       -1.37900       -0.32900
Ni        -3.47560       -0.20170       -0.28210
Br        -3.43700       -2.71260        0.35210
C         -3.50780        1.88260       -0.80850
C         -4.49560        2.78550       -0.87370
N         -5.61600       -0.28510       -0.28320
C         -5.63660        0.13100        1.14630
N         -6.51170        0.65820       -0.76850
C         -7.71780        0.20170       -0.79140
C         -7.71630       -1.15860       -0.54010
C         -6.38390       -1.48970       -0.33130
H         -1.21540        1.86880        0.15650
H          1.14180        1.97390        0.27290
H          1.35990       -2.25700       -0.30330
H         -1.05460       -2.34940       -0.46640
H         -2.59390        2.31260       -1.17750
H         -5.52180        2.64230       -0.63330
H         -4.26610        3.78210       -1.24280
H         -6.18650        1.07850        1.38270
H         -6.06890       -0.63010        1.83490
H         -4.60450        0.32880        1.48000
H         -8.60800        0.79840       -0.98780
H         -8.57300       -1.82570       -0.56430
H         -6.04000       -2.50050       -0.18970
