32

N         -1.40820       -0.05320       -0.03450
C         -0.75120        1.14120       -0.01330
C          0.64860        1.20110       -0.14590
C          1.40160        0.06020       -0.05230
Cl         3.14120        0.12740       -0.21520
C          0.75070       -1.09980        0.25190
C         -0.62630       -1.13000        0.23730
Ni        -3.49300       -0.22420       -0.28090
Br        -3.69420        2.01160        0.85760
C         -3.30190       -2.11360       -1.24020
C         -2.15650       -2.76390       -1.48730
N         -5.56500       -0.32510       -0.52760
C         -6.22580       -1.52220       -0.58620
N         -7.54270       -1.61270       -0.91820
C         -8.28320       -0.49710       -1.09470
O         -9.57740       -0.57080       -1.52470
C        -10.19020       -1.78370       -1.80280
C         -7.68330        0.73170       -0.80940
C         -6.30560        0.81040       -0.61780
H         -1.25480        2.05840        0.03170
H          1.16490        2.11840       -0.31560
H          1.29370       -1.98450        0.50440
H         -1.05300       -2.07420        0.50600
H         -4.13690       -2.60030       -1.66620
H         -1.23510       -2.34760       -1.40310
H         -2.00990       -3.71240       -1.86910
H         -5.73090       -2.40530       -0.22900
H        -11.23500       -1.66540       -2.12410
H        -10.17820       -2.43870       -0.91140
H         -9.64120       -2.29790       -2.60960
H         -8.26740        1.61230       -0.78320
H         -5.82390        1.77770       -0.63060
