91

N         -1.39000       -0.11200       -0.05400
C         -0.73410        0.52850        0.98590
C          0.65080        0.74900        0.99900
C          1.48960        0.23200        0.00400
N          2.92380        0.49990       -0.01980
C          3.56530        1.51080        0.82120
C          3.84940       -0.17510       -0.92320
C          0.84350       -0.54800       -0.96980
C         -0.55490       -0.67310       -0.98980
Ni        -3.47560       -0.20170       -0.28210
Br        -3.84900       -1.12060        2.11610
C         -3.40600        0.51150       -2.30020
C         -2.31460        0.94000       -2.94660
C         -5.61100       -0.29360       -0.51560
N         -6.33780       -1.51140       -0.40240
C         -6.05000       -3.04540       -0.47040
C         -4.72670       -3.63720       -0.71310
C         -3.48760       -2.87730       -0.88990
C         -2.47460       -3.25510        0.24400
C         -2.97610       -2.99720       -2.33240
C         -4.47200       -5.01770       -0.79270
C         -5.44030       -5.93120       -0.62330
C         -6.71130       -5.49670       -0.40660
C         -7.08070       -4.11570       -0.34450
C         -8.58500       -3.90460       -0.17410
C         -9.14460       -3.31180       -1.49080
C         -9.44770       -5.14430        0.15100
C         -7.55980       -1.01950       -0.10950
C         -7.58920        0.31700       -0.03480
N         -6.40750        0.89170       -0.25910
C         -6.26180        2.46240       -0.07610
C         -4.99000        3.21240        0.12240
C         -3.66730        2.56860        0.31730
C         -2.38770        3.45650        0.48610
C         -3.87960        1.80590        1.58360
C         -4.92820        4.61470        0.29560
C         -6.01470        5.39680        0.31770
C         -7.22580        4.82460        0.18180
C         -7.42840        3.42980       -0.00340
C         -8.93860        3.10340       -0.11300
C         -9.97590        4.23310        0.15440
C         -9.19970        2.58880       -1.53020
H         -1.18440        1.01010        1.81710
H          1.02130        1.35000        1.81110
H          2.89120        2.08870        1.46880
H          4.07180        2.26430        0.17750
H          4.33120        1.03310        1.46760
H          3.40130       -0.95360       -1.55460
H          4.64470       -0.67360       -0.32960
H          4.32850        0.57010       -1.59620
H          1.36800       -1.04030       -1.76910
H         -0.92940       -1.24000       -1.78990
H         -4.34370        0.53970       -2.84380
H         -1.34180        0.99710       -2.49650
H         -2.38140        1.27880       -3.97340
H         -3.86260       -1.93450       -0.80540
H         -2.01370       -4.25100        0.11240
H         -3.00830       -3.36420        1.21130
H         -1.65770       -2.53770        0.39020
H         -2.34660       -3.89670       -2.47580
H         -2.45150       -2.10360       -2.66780
H         -3.83440       -3.01400       -3.03420
H         -3.47820       -5.41770       -0.97870
H         -5.20110       -6.98840       -0.67220
H         -7.39270       -6.32110       -0.31170
H         -8.71580       -3.32580        0.75460
H         -9.01740       -4.04540       -2.31510
H         -8.62610       -2.40550       -1.85160
H        -10.22080       -3.07060       -1.37780
H         -9.47740       -5.85810       -0.70200
H        -10.48990       -4.83200        0.36440
H         -9.06220       -5.65720        1.06050
H         -8.46740       -1.50340        0.11690
H         -8.49830        0.73280        0.24380
H         -3.49370        1.98060       -0.55250
H         -2.42270        4.03510        1.43840
H         -2.25790        4.15270       -0.36900
H         -1.45750        2.87260        0.51780
H         -3.92790        2.43100        2.49240
H         -3.06920        1.15860        1.65990
H         -4.78820        1.19020        1.54930
H         -4.02660        5.18480        0.45930
H         -5.91250        6.46410        0.47230
H         -8.00020        5.56310        0.24570
H         -9.19860        2.44770        0.72920
H         -9.91560        5.04610       -0.60120
H         -9.84350        4.66310        1.17430
H        -11.00520        3.82220        0.11260
H         -9.02160        3.41800       -2.24870
H        -10.24400        2.23430       -1.62100
H         -8.51710        1.77500       -1.83020
