41

N         -1.43840       -0.12570       -0.13860
C         -0.83400        1.09190       -0.13590
C          0.57120        1.20770       -0.15570
O          1.20800        2.39790       -0.31800
C          0.58340        3.60330       -0.57030
C          1.33610        0.04670       -0.04410
C          0.70670       -1.19740       -0.01220
C         -0.68820       -1.26880       -0.13860
Ni        -3.47560       -0.20170       -0.28210
Br        -3.18330       -1.72540       -2.35600
C         -3.71830        1.06310        1.43950
C         -2.73560        1.55220        2.20610
N         -5.50780       -0.37620       -0.46710
C         -6.49320        0.38500        0.04550
N         -7.71290       -0.04780       -0.34040
C         -8.99980        0.53020       -0.02100
C         -9.10470        1.68090        0.78950
C        -10.35750        2.20080        1.12330
C        -11.51940        1.59190        0.64820
C        -11.43170        0.47200       -0.17720
C        -10.18530       -0.05500       -0.51120
C         -7.48230       -1.14180       -1.09190
C         -6.13210       -1.32960       -1.18200
H         -1.45400        1.97090       -0.23330
H          1.34610        4.38370       -0.77060
H         -0.02130        3.89960        0.30970
H         -0.06740        3.52520       -1.47110
H          2.41860        0.10600       -0.00790
H          1.30050       -2.09680        0.09420
H         -1.17320       -2.23500       -0.11310
H         -4.69500        1.33380        1.78750
H         -1.69330        1.34820        2.05950
H         -2.97420        2.17720        3.05940
H         -6.34930        1.26660        0.63190
H         -8.23280        2.18390        1.17940
H        -10.42590        3.07460        1.75760
H        -12.48830        1.98840        0.91730
H        -12.32980        0.00280       -0.55590
H        -10.16560       -0.92540       -1.14860
H         -8.22200       -1.77660       -1.55480
H         -5.67200       -2.14450       -1.71230
