46

O          1.02790        0.09390        0.02020
C          0.47230       -0.97990        0.70810
C          0.84340       -0.94800        2.19240
C         -1.05360       -0.87540        0.56130
Ni         3.07790        0.09390        0.02020
Br         3.11170       -2.00560       -1.31280
C          2.91400        1.97040        0.87300
C          2.60510        2.19750        2.14500
P          5.53790        0.09390        0.02020
N          6.63730        1.53980       -0.00640
C          6.23510        2.67860        0.84850
C          8.05280        1.55040       -0.37080
N          5.81860       -0.17430        1.77610
C          5.30010       -1.49940        2.14410
C          7.27150       -0.16200        2.13780
N          5.99700       -0.90900       -1.38110
C          6.08730       -0.10160       -2.61490
C          7.15350       -1.79150       -1.16610
H          0.79580       -1.94270        0.26150
H          0.49050       -0.00400        2.65910
H          1.94400       -1.02630        2.30810
H          0.37070       -1.80210        2.72200
H         -1.42720        0.07970        1.00640
H         -1.56820       -1.72010        1.06980
H         -1.32590       -0.89340       -0.51250
H          3.07270        2.81400        0.20900
H          2.42200        1.38560        2.82960
H          2.52210        3.22560        2.48920
H          5.19200        2.95480        0.67820
H          6.81210        3.59620        0.60070
H          6.35690        2.47890        1.92900
H          8.30510        0.78910       -1.11420
H          8.70590        1.51340        0.52210
H          8.27110        2.51430       -0.88210
H          4.24360       -1.58950        1.87960
H          5.40310       -1.64980        3.24210
H          5.87210       -2.30690        1.63920
H          7.60540        0.85150        2.41560
H          7.90470       -0.55940        1.32660
H          7.49290       -0.75590        3.04880
H          5.11110       -0.12110       -3.14250
H          6.85760       -0.48670       -3.31750
H          6.33460        0.96410       -2.42850
H          6.94470       -2.49820       -0.34590
H          8.08690       -1.25320       -0.94830
H          7.32430       -2.40320       -2.07880
