49

N         -0.65900       -1.22800       -0.05100
C          0.49320       -0.88030       -0.72060
O          0.96330       -1.62910       -1.74700
C          0.14330       -2.15080       -2.74620
C          1.12180        0.35310       -0.45980
C          0.59170        1.21480        0.49620
C         -0.55550        0.84430        1.18030
C         -1.16410       -0.37350        0.88080
Ni        -1.57560       -3.10440       -0.27260
Br         0.72740       -4.13860       -0.41210
C         -3.60280       -2.30900       -0.20120
C         -4.16600       -1.19050        0.25630
P         -2.64940       -5.30240       -0.53210
C         -4.02950       -5.87940        0.52970
C         -3.91130       -5.08590       -1.88040
C         -3.86690       -3.97430       -2.74020
C         -4.80330       -3.81390       -3.76990
C         -5.78410       -4.78100       -3.99140
C         -5.80100       -5.93300       -3.21580
C         -4.86700       -6.09990       -2.19190
C         -1.40050       -6.60040       -0.57050
C         -0.55500       -6.90510        0.50380
C          0.43840       -7.88510        0.35080
C          0.58200       -8.56780       -0.86760
C         -0.26900       -8.27310       -1.92880
C         -1.25420       -7.29710       -1.78600
H          0.66210       -2.08850       -3.72150
H         -0.83070       -1.62210       -2.80750
H         -0.07150       -3.22010       -2.59860
H          1.99990        0.65720       -1.01490
H          1.06800        2.16290        0.71700
H         -0.95600        1.47600        1.96410
H         -1.94470       -0.69200        1.52200
H         -4.33620       -2.91750       -0.60630
H         -3.75590       -0.40620        0.90310
H         -5.25250       -1.08070        0.17430
H         -4.84760       -5.12820        0.57050
H         -3.61500       -5.94770        1.55810
H         -4.39940       -6.89450        0.31680
H         -3.10130       -3.22120       -2.61770
H         -4.76850       -2.93730       -4.40190
H         -6.51520       -4.65170       -4.77970
H         -6.53700       -6.70630       -3.40900
H         -4.92490       -7.03390       -1.66060
H         -0.64360       -6.37110        1.43950
H          1.11030       -8.11220        1.16650
H          1.35280       -9.31680       -0.98740
H         -0.15940       -8.79580       -2.87620
H         -1.89100       -7.07100       -2.63050
