48

N         -1.40140       -0.13760       -0.05710
C         -0.66890       -1.36090        0.20260
C          0.66100       -1.28720        0.64640
C          1.31340       -0.16260        0.56510
N          2.70090       -0.08320        1.03980
C          3.56700       -1.26910        0.98340
C          3.22370        1.18290        1.57210
C          0.69040        0.97000        0.02470
C         -0.71520        0.98680       -0.13800
Ni        -3.50000       -0.20020       -0.28230
Br        -3.17400       -0.56760       -2.84490
C         -3.71500        0.10210        1.83240
C         -4.94190        0.16710        2.40520
N         -5.56080       -0.31000       -0.50420
C         -6.32940        0.72230       -0.11370
C         -7.64100        0.68170       -0.24400
C         -8.26490       -0.36180       -0.76500
C         -7.57620       -1.41060       -1.17720
C         -8.17680       -2.53150       -1.73740
C         -7.33850       -3.32650       -2.55340
C         -6.01350       -3.42860       -2.19570
C         -5.19700       -4.62930       -2.64230
O         -3.97440       -4.72450       -2.31380
C         -5.84510       -5.71750       -3.48250
C         -5.45590       -2.49700       -1.47260
C         -6.17280       -1.41020       -1.05370
H         -1.11960       -2.28010        0.06250
H          1.12130       -2.12330        1.03650
H          3.02250       -2.09150        0.57100
H          3.89480       -1.51980        1.97110
H          4.41740       -1.06170        0.36740
H          2.45840        1.92940        1.53620
H          4.05880        1.50080        0.98260
H          3.53620        1.04260        2.58630
H          1.25410        1.78930       -0.25270
H         -1.21210        1.87280       -0.32240
H         -2.86420        0.20130        2.41680
H         -5.78840        0.07000        1.82190
H         -5.03200        0.31240        3.42370
H         -5.88990        1.56040        0.29820
H         -8.19890        1.49030        0.07120
H         -9.29340       -0.35570       -0.85030
H         -9.16840       -2.76760       -1.56990
H         -7.70660       -3.81350       -3.38650
H         -6.87110       -5.46960       -3.65940
H         -5.78910       -6.65140       -2.96260
H         -5.33200       -5.79910       -4.41830
H         -4.46000       -2.58120       -1.21510
