69

P          0.98080        0.07670        0.06120
O         -0.17380       -1.09460       -0.45530
C          0.22690       -1.45590       -1.78830
C         -0.44630       -2.71390       -2.31460
O          0.52840        0.26410        1.69770
C          0.59320       -0.94440        2.40120
C         -0.08040       -0.71590        3.75100
O          0.51150        1.24950       -1.11260
C         -0.90180        1.46260       -0.99480
C         -1.44560        2.24460       -2.17820
Ni         3.44080        0.07670        0.06120
Br         3.44080        2.48960        1.00240
C          3.44080       -1.92630       -0.72010
C          2.94390       -2.98040       -0.07630
P          5.90080        0.07670        0.06120
C          6.68800        0.94780       -1.31420
C          6.00740        2.07320       -1.81040
C          6.41690        2.69530       -2.99090
C          7.51510        2.20090       -3.69280
C          8.20510        1.08600       -3.21150
C          7.79120        0.45340       -2.03340
C          6.45470        1.13140        1.45860
C          5.61390        1.37830        2.57160
C          6.03670        2.09310        3.69170
C          7.34870        2.52190        3.77090
C          8.23880        2.21280        2.73180
C          7.79310        1.51870        1.59190
C          6.47060       -1.67080       -0.09290
C          6.15280       -2.51240        1.15730
C          5.32100       -2.07480        2.21390
C          5.11200       -2.85660        3.35320
C          5.71820       -4.10370        3.46150
C          6.52980       -4.57020        2.43050
C          6.74480       -3.78460        1.28410
H          1.30340       -1.66940       -1.86520
H         -0.00270       -0.64890       -2.51400
H         -0.19930       -3.58570       -1.67380
H         -0.07560       -2.92420       -3.34750
H         -1.54120       -2.56640       -2.35810
H          1.65340       -1.22780        2.57230
H          0.03440       -1.76110        1.89400
H          0.42380        0.11250        4.29480
H         -0.03470       -1.63460        4.37050
H         -1.14750       -0.43660        3.60250
H         -1.15260        1.98230       -0.04660
H         -1.50860        0.53520       -1.05310
H         -1.01560        3.26240       -2.19980
H         -2.55430        2.31790       -2.08560
H         -1.22080        1.71030       -3.12750
H          3.89820       -2.07360       -1.69270
H          2.48470       -2.87970        0.89740
H          2.99660       -3.95920       -0.54650
H          5.12310        2.44700       -1.31420
H          5.86300        3.54350       -3.37590
H          7.81800        2.67120       -4.61920
H          9.04470        0.69230       -3.76810
H          8.32240       -0.42830       -1.72360
H          4.61310        0.98440        2.62220
H          5.34210        2.28400        4.50240
H          7.68310        3.05950        4.65080
H          9.27380        2.50000        2.83190
H          8.51380        1.26870        0.82830
H          7.57750       -1.62810       -0.10880
H          6.12520       -2.15860       -1.02310
H          4.82140       -1.13050        2.18640
H          4.48090       -2.48970        4.15330
H          5.55840       -4.70540        4.34830
H          7.00330       -5.54060        2.51920
H          7.39580       -4.16450        0.50640
