31

O          0.93430       -0.07030       -0.02730
C          0.36960       -1.13230       -0.73880
C          0.74490       -2.48020       -0.13430
C         -1.15240       -0.95100       -0.68960
Ni         2.98430       -0.07030       -0.02730
Br         2.98430        0.05960       -2.61400
C          2.98430       -0.17800        2.12000
C          2.50270       -1.21930        2.79240
N          5.08430       -0.07030       -0.02730
C          5.66390       -0.84600       -1.15210
C          5.41590        1.32370       -0.40530
C          5.73330       -0.36420        1.26540
H          0.67120       -1.09550       -1.80380
H          0.38530       -2.54640        0.91400
H          1.84630       -2.61480       -0.16720
H          0.26870       -3.30060       -0.71390
H         -1.51190       -0.96950        0.36730
H         -1.67650       -1.75030       -1.25740
H         -1.43230        0.03510       -1.12470
H          3.33430        0.68530        2.67640
H          2.11680       -2.08410        2.27760
H          2.49190       -1.20140        3.87810
H          5.46010       -0.45050       -2.16280
H          5.29010       -1.89030       -1.10080
H          6.77430       -0.88690       -1.08120
H          4.94560        1.62290       -1.36460
H          6.51650        1.48990       -0.47480
H          5.01270        2.02350        0.35810
H          5.43630       -1.37670        1.61190
H          5.48260        0.38800        2.03940
H          6.84220       -0.34920        1.17110
