57

P          0.98460       -0.00320       -0.09880
C          0.11890       -1.57390        0.41890
C          0.45400       -2.71110       -0.56770
C          0.01440       -3.94380        0.20290
C          0.53630       -3.70150        1.61120
C          0.71170       -2.17850        1.69910
C          0.60890        1.32800        1.15470
C         -0.86020        1.72620        1.29350
C         -0.80760        2.67110        2.48890
C         -0.00940        1.84060        3.46520
C          1.09650        1.20660        2.61370
C          0.20510        0.14010       -1.78930
C         -1.33950        0.04850       -1.77000
C         -1.69330        0.43150       -3.19120
C         -0.73340        1.57730       -3.52350
C          0.35730        1.51740       -2.43750
Ni         3.44460       -0.00320       -0.09880
Br         3.72310       -0.47670        2.33890
C          3.41720        0.33690       -2.13920
C          3.97010        1.43280       -2.65680
C          5.59460       -0.00320       -0.09880
N          6.36420       -0.19970        0.99270
C          7.62420       -0.11100        0.53240
C          7.57810        0.14050       -0.81700
O          6.31600        0.19800       -1.17890
H         -0.98030       -1.47050        0.52900
H          1.55690       -2.76810       -0.72790
H         -0.04490       -2.64360       -1.55300
H          0.32100       -4.92130       -0.22940
H         -1.09610       -3.90870        0.24280
H          1.53910       -4.17300        1.75280
H         -0.16190       -4.13230        2.35800
H          1.80200       -2.04990        1.59040
H          0.40720       -1.74860        2.66990
H          1.09090        2.25080        0.75450
H         -1.47890        0.83500        1.54390
H         -1.27340        2.24200        0.40540
H         -1.80520        2.97080        2.87450
H         -0.23330        3.58740        2.22030
H         -0.69380        1.02510        3.79440
H          0.34850        2.35920        4.38360
H          1.22500        0.18970        3.00430
H          2.04670        1.77790        2.70100
H          0.59450       -0.64750       -2.46680
H         -1.78310        0.80580       -1.09830
H         -1.76750       -0.93790       -1.49970
H         -2.76670        0.64350       -3.39200
H         -1.40380       -0.44580       -3.81320
H         -1.21940        2.57680       -3.47460
H         -0.34870        1.40920       -4.55280
H          0.06230        2.25640       -1.65820
H          1.35040        1.82560       -2.80090
H          2.96880       -0.40100       -2.79490
H          4.43250        2.16940       -2.00960
H          3.95740        1.59470       -3.73010
H          8.50820       -0.22780        1.14210
H          8.42370        0.26480       -1.48170
