69

P          0.99520       -0.08110       -0.05830
C         -0.16690       -0.39200       -1.51710
C          0.08930        0.57710       -2.68980
C         -0.77000       -0.02770       -3.79040
C         -0.35840       -1.48250       -3.73330
C         -0.09180       -1.76300       -2.24000
C          0.67020       -1.54220        1.05850
C         -0.78580       -1.82620        1.45520
C         -0.65870       -3.19460        2.11600
C          0.15870       -3.93340        1.07700
C          1.22230       -2.91820        0.62590
C          0.31980        1.63240        0.33080
C         -1.19510        1.62900        0.64250
C         -1.42460        2.97260        1.30070
C         -0.28060        2.99720        2.29090
C          0.91620        2.40990        1.52480
Ni         3.45520       -0.08110       -0.05830
Br         3.47940        0.16340        2.41910
C          3.49740       -0.40660       -2.09600
C          3.35880       -1.65150       -2.54290
N          5.55520       -0.08110       -0.05830
C          6.41460        0.02280        0.98460
N          7.70930        0.02210        0.57190
C          8.90070        0.14430        1.39500
C          8.81670        0.18110        2.80400
C          9.96780        0.30160        3.58340
C         11.22260        0.39480        2.98070
C         11.32960        0.36000        1.59210
C         10.18200        0.23410        0.80230
C          7.65980       -0.10390       -0.76600
C          6.34330       -0.17650       -1.15010
H         -1.22670       -0.28700       -1.22150
H          1.15820        0.53250       -3.00380
H         -0.17820        1.63440       -2.50410
H         -0.62330        0.42590       -4.79580
H         -1.83940        0.06730       -3.50420
H          0.62360       -1.52880       -4.26480
H         -1.03130       -2.19980       -4.25130
H          0.90350       -2.21850       -2.24450
H         -0.81710       -2.47510       -1.79250
H          1.15380       -1.32030        2.03310
H         -1.43350       -1.91280        0.55520
H         -1.22670       -1.09740        2.16050
H         -1.63420       -3.67920        2.34100
H         -0.07390       -3.10610        3.06020
H         -0.53860       -4.10050        0.22180
H          0.55670       -4.92570        1.37450
H          1.37780       -3.08700       -0.44300
H          2.20100       -3.06610        1.12750
H          0.45670        2.30530       -0.54000
H         -1.41980        0.86230        1.40420
H         -1.87310        1.47420       -0.21880
H         -2.42270        3.05830        1.78910
H         -1.30900        3.77910        0.54700
H         -0.55130        2.26910        3.09200
H         -0.09370        3.97470        2.78370
H          1.48620        1.81990        2.24850
H          1.55210        3.22440        1.11080
H          3.66410        0.41120       -2.78790
H          3.20350       -2.45650       -1.83290
H          3.39590       -1.87480       -3.60310
H          6.11210        0.13160        2.00250
H          7.86680        0.11140        3.31390
H          9.89100        0.33000        4.66200
H         12.11190        0.49680        3.59040
H         12.30290        0.43580        1.12300
H         10.31280        0.21700       -0.26850
H          8.50300       -0.13910       -1.43780
H          6.01540       -0.27180       -2.17370
