48

P          1.07120       -0.00600        0.06990
C          0.01590        0.51240        1.47870
C          0.86920        1.53940       -0.86850
C          0.17620       -1.58830       -0.39180
C         -1.29470       -1.26140       -0.75100
C          0.81880       -2.21330       -1.63060
C          0.19280       -2.63180        0.74230
Ni         3.53120       -0.00600        0.06990
Br         3.53120       -0.67880       -2.43120
C          3.53120        0.55250        2.14610
C          3.52910       -0.18550        3.25290
N          5.63120       -0.00600        0.06990
C          6.49710       -1.02960        0.19420
N          7.76690       -0.56630        0.37820
C          8.96860       -1.30730        0.70980
C          8.89670       -2.68860        1.02940
C         10.04040       -3.37080        1.46380
C         11.25690       -2.70320        1.58220
C         11.34690       -1.35210        1.25770
C         10.21190       -0.65720        0.82770
C          7.67810        0.78190        0.29230
C          6.35500        1.11760        0.17140
H         -1.04440        0.67780        1.23180
H          0.41710        1.46740        1.87840
H          0.11840       -0.21940        2.30610
H         -0.21540        1.76700       -0.96350
H          1.28990        1.42190       -1.88590
H          1.36900        2.37800       -0.34340
H         -1.33880       -0.47980       -1.54110
H         -1.88190       -0.91440        0.11890
H         -1.82410       -2.16070       -1.13000
H          0.81830       -1.49320       -2.47600
H          0.25820       -3.11680       -1.95510
H          1.85000       -2.54190       -1.39200
H         -0.33890       -2.26820        1.64380
H          1.23070       -2.90570        1.02060
H         -0.34190       -3.55300        0.41900
H          3.53210        1.63070        2.27270
H          3.52730       -1.26400        3.25300
H          3.52890        0.35020        4.20460
H          6.19180       -2.06440        0.25950
H          7.96420       -3.22370        0.97780
H          9.96450       -4.41340        1.72610
H         12.13180       -3.23420        1.93010
H         12.29360       -0.83400        1.35640
H         10.33210        0.39390        0.61170
H          8.48270        1.49260        0.38100
H          5.94720        2.11430        0.12660
