47

P         -0.07390       -2.76020        0.10790
N         -1.29280       -3.38880       -0.99670
C         -0.54300       -4.22490       -1.95910
C         -2.31320       -4.24780       -0.33120
O          0.83370       -1.79180       -0.94290
C          1.45960       -0.67570       -0.45690
C          2.85870       -0.63350       -0.46700
C          3.54910        0.46550        0.05310
C          2.84880        1.56000        0.55940
C          1.45350        1.56050        0.54400
C          0.74260        0.43830        0.05750
C         -0.73870        0.46190        0.07310
C         -1.38620        1.61260       -0.44430
C         -2.77840        1.66960       -0.51200
C         -3.53860        0.61230       -0.02160
C         -2.91990       -0.50080        0.53600
C         -1.53900       -0.62110        0.56950
O         -1.06260       -1.80010        1.06690
Ni         1.57010       -3.85020        1.34810
Br         2.44020       -5.04220       -0.69170
C          0.78250       -2.96450        3.10650
C          0.77510       -1.64880        3.38720
O          2.96140       -4.73960        2.46100
C          3.78210       -5.70050        2.10170
N          4.72160       -5.92520        3.04020
C          4.42140       -5.05460        4.02450
C          3.29220       -4.34730        3.67060
H          0.19850       -3.59510       -2.48870
H         -1.21600       -4.65570       -2.72330
H          0.00330       -5.07440       -1.48750
H         -2.88290       -3.67110        0.43130
H         -1.91530       -5.18410        0.10830
H         -3.02070       -4.62620       -1.10620
H          3.40750       -1.47510       -0.86190
H          4.63010        0.46520        0.06450
H          3.38760        2.40750        0.96640
H          0.92980        2.42310        0.94600
H         -0.82110        2.45150       -0.84540
H         -3.27320        2.52600       -0.95410
H         -4.61530        0.63580       -0.08770
H         -3.51520       -1.31720        0.90840
H          0.28460       -3.60110        3.84260
H          1.21860       -0.88940        2.77120
H          0.28940       -1.24980        4.27520
H          3.73640       -6.23650        1.17010
H          5.01020       -4.90950        4.92050
H          2.86650       -3.51710        4.21450
