67

P         -0.09400       -2.58900       -0.00200
N         -1.28650       -3.05560       -1.23800
C         -2.29120       -3.95950       -0.64200
C         -1.86490       -2.07930       -2.15200
O          0.96580       -1.67630       -0.88490
C          1.37860       -0.52350       -0.32390
C          2.76870       -0.30220       -0.28420
C          3.30180        0.81910        0.35090
C          2.45280        1.76490        0.91890
C          1.07200        1.59880        0.84160
C          0.50240        0.47400        0.24160
C         -1.00050        0.38490        0.26340
C         -1.70740        1.54250       -0.15250
C         -3.11050        1.56650       -0.14760
C         -3.82630        0.45880        0.28940
C         -3.14750       -0.68510        0.72110
C         -1.75840       -0.74640        0.70270
O         -1.15250       -1.89840        1.07650
Ni         1.42500       -4.05750        1.25810
Br         2.45600       -1.98860        2.42630
C          0.56910       -5.77490        0.28840
C          0.81300       -6.15180       -0.96770
P          2.94400       -5.52600        2.51820
N          2.83550       -7.29530        2.88950
C          3.55030       -7.94060        3.99770
C          1.39820       -7.62830        3.03480
N          4.28940       -5.68060        1.33920
C          5.41250       -6.52020        1.79690
C          3.84840       -6.13330        0.02960
N          3.16190       -4.55860        4.00850
C          1.89690       -4.42270        4.74010
C          4.24110       -4.96680        4.92050
H         -1.82560       -4.68200        0.06290
H         -2.79610       -4.56250       -1.42280
H         -3.05300       -3.39900       -0.06730
H         -1.07550       -1.44230       -2.59020
H         -2.66010       -1.48390       -1.67610
H         -2.34600       -2.64100       -2.98550
H          3.44050       -1.03990       -0.70200
H          4.37180        0.94570        0.41740
H          2.86930        2.62700        1.42590
H          0.45190        2.35420        1.31060
H         -1.18480        2.42180       -0.47790
H         -3.62760        2.45250       -0.49260
H         -4.90890        0.48300        0.27370
H         -3.73620       -1.53250        1.05710
H         -0.15730       -6.34080        0.85340
H          1.50580       -5.62060       -1.60460
H          0.31640       -7.03160       -1.36610
H          4.63420       -7.77020        3.97720
H          3.42800       -9.04590        3.88380
H          3.09000       -7.71220        4.98010
H          0.91630       -7.64330        2.05340
H          0.86530       -6.92650        3.71620
H          1.22360       -8.65590        3.41900
H          5.76310       -6.23540        2.79900
H          6.28950       -6.37670        1.13130
H          5.15720       -7.60290        1.77120
H          3.27420       -5.31440       -0.42660
H          3.27670       -7.08450        0.10470
H          4.72140       -6.29990       -0.64160
H          1.09210       -4.06340        4.06460
H          2.00970       -3.66250        5.54410
H          1.59270       -5.38100        5.20820
H          5.21420       -5.00620        4.41030
H          4.02560       -5.90610        5.44840
H          4.35340       -4.21250        5.72640
