68

P          0.92180       -0.04790        0.04000
C         -0.25260        0.19290       -1.34260
C          0.47210       -1.77460        0.33100
C          0.78040       -2.76450       -0.61900
C          0.27580       -4.06350       -0.47240
C         -0.53770       -4.38150        0.61960
C         -0.83010       -3.40730        1.57630
C         -0.32370       -2.11300        1.43730
C          0.20410        1.19020        1.13660
C         -1.17620        1.12660        1.42370
C         -1.79860        2.12670        2.16540
C         -1.05450        3.21100        2.62250
C          0.31550        3.28800        2.34210
C          0.94770        2.27840        1.60130
Ni         3.38180       -0.04790        0.04000
Br         3.38180       -0.42200        2.60280
C          3.38180        0.26270       -2.08750
C          4.13720        1.07510       -2.83030
P          5.84180       -0.04790        0.04000
C          6.59560        1.56860        0.45620
C          6.46730        2.06380        1.76770
C          6.89050        3.36150        2.09010
C          7.44140        4.18790        1.10850
C          7.55130        3.72750       -0.19760
C          7.11570        2.44520       -0.52460
C          6.47320       -1.10860        1.39550
C          5.66150       -2.11540        1.95340
C          6.11240       -2.95030        2.97390
C          7.43700       -2.87980        3.38370
C          8.30820       -1.99100        2.74740
C          7.83200       -1.10900        1.76000
C          6.30770       -0.49900       -1.67930
C          7.49110       -0.09550       -2.31930
C          7.73360       -0.46240       -3.64410
C          6.82170       -1.27930       -4.31560
C          5.69640       -1.76570       -3.63150
O          4.92320       -2.50690       -4.20200
N          5.49790       -1.40530       -2.32430
H         -1.31090        0.02450       -1.08200
H          0.02150       -0.50300       -2.16470
H         -0.11580        1.22180       -1.74040
H          1.37150       -2.52290       -1.49250
H          0.48990       -4.81850       -1.21910
H         -0.95170       -5.37650        0.71870
H         -1.47130       -3.64840        2.41490
H         -0.59290       -1.37260        2.17610
H         -1.79040        0.31350        1.05930
H         -2.86140        2.06620        2.36510
H         -1.54590        3.99640        3.18210
H          0.87930        4.14330        2.68340
H          1.99890        2.36520        1.36190
H          2.54740       -0.20650       -2.59860
H          4.90930        1.70180       -2.41150
H          3.91290        1.14990       -3.89390
H          6.01110        1.45890        2.54020
H          6.77200        3.73900        3.09650
H          7.75650        5.19500        1.34830
H          7.94380        4.37510       -0.97340
H          7.14990        2.21100       -1.56600
H          4.66150       -2.28250        1.59470
H          5.43550       -3.66700        3.42650
H          7.79010       -3.54420        4.16330
H          9.35370       -1.99220        3.02190
H          8.52810       -0.44380        1.26920
H          8.24490        0.49530       -1.82080
H          8.62360       -0.11790       -4.14630
H          7.00290       -1.54040       -5.35740
H          4.66990       -1.79570       -1.84730
