61

P          1.07970        0.02140        0.05650
N          0.24490       -1.54180        0.13380
C         -1.21200       -1.51290        0.09540
C          0.81060       -2.43950       -0.89100
O          0.59750        0.51950        1.61310
C          0.90150        1.88200        1.74490
O          0.64560        0.31180       -1.57340
C          0.55580        1.69180       -1.82160
Ni         3.53970        0.02140        0.05650
Br         3.38740       -0.59480        2.45370
C          3.59350        0.54480       -1.97080
C          3.57080        1.80980       -2.39760
P          5.99970        0.02140        0.05650
C          6.84990       -1.54420        0.48700
C          7.78180       -2.16980       -0.36410
C          8.22470       -3.47440       -0.09610
C          7.75830       -4.16470        1.02500
C          6.85740       -3.55090        1.88860
C          6.40500       -2.26260        1.61610
C          6.47890        0.57200       -1.60400
C          6.74890        1.94070       -1.78890
C          7.08730        2.43860       -3.04910
C          7.18440        1.57140       -4.13690
C          6.92360        0.20840       -3.96750
C          6.55430       -0.29020       -2.71100
C          6.41740        0.92240        1.59540
C          5.90600        2.22360        1.68950
C          6.29790        3.06370        2.72970
C          7.19390        2.60270        3.68460
C          7.69360        1.29880        3.59130
O          8.49310        0.90470        4.41360
N          7.30400        0.48580        2.54650
H         -1.59960       -0.85810        0.89990
H         -1.58310       -2.54280        0.30810
H         -1.58220       -1.19510       -0.89840
H          1.92570       -2.44390       -0.83370
H          0.51960       -2.12540       -1.91690
H          0.47530       -3.48420       -0.73230
H          0.55990        2.21170        2.74830
H          0.34670        2.49870        1.00760
H          1.99920        2.05550        1.70180
H          0.90040        1.86080       -2.86420
H          1.21200        2.31360       -1.17660
H         -0.49430        2.03610       -1.75160
H          3.68840       -0.25180       -2.69480
H          3.48890        2.64220       -1.70710
H          3.62560        2.02150       -3.46370
H          8.14400       -1.69160       -1.25730
H          8.91160       -3.96450       -0.77300
H          8.08350       -5.17830        1.22170
H          6.48360       -4.08020        2.75680
H          5.68620       -1.84200        2.28690
H          6.67510        2.63620       -0.96490
H          7.27210        3.49790       -3.18090
H          7.45590        1.95820       -5.11110
H          7.00140       -0.46010       -4.81430
H          6.33920       -1.34400       -2.60720
H          5.23360        2.60970        0.93160
H          5.92590        4.07890        2.77770
H          7.52010        3.26420        4.48570
H          7.77100       -0.43660        2.50760
