61

P          1.01820       -0.07390       -0.06490
C         -0.02440        0.02720       -1.63960
C         -1.55780       -0.01170       -1.71060
C         -1.76980        0.20230       -3.21390
C         -0.88310        1.38700       -3.51930
C          0.28400        1.25860       -2.53470
C          0.75280       -1.81750        0.50270
C         -0.68140       -2.23470        0.85750
C         -0.50510       -3.72170        1.09220
C          0.28530       -4.11690       -0.14910
C          1.26130       -2.94900       -0.40480
C          0.29400        1.31250        0.98670
C          0.87030        1.50630        2.38680
C          0.13850        2.75550        2.86120
C          0.33690        3.66890        1.66780
C          0.19830        2.75560        0.43850
Ni         3.47820       -0.07390       -0.06490
Br         3.41970       -0.35020        2.42380
C          3.38250       -0.01850       -2.13210
C          3.86650        1.04160       -2.78440
N          5.57820       -0.07390       -0.06490
C          6.27670       -0.24160       -1.24020
C          7.67430       -0.32240       -1.25450
C          8.38640       -0.18900       -0.07080
Cl        10.13740       -0.27990       -0.06990
C          7.69330        0.01150        1.11540
C          6.29680        0.04860        1.10140
H          0.31650       -0.83960       -2.24700
H         -2.00300        0.82630       -1.13360
H         -2.05460       -0.95370       -1.44850
H         -2.82700        0.34250       -3.53660
H         -1.36410       -0.68480       -3.75900
H         -1.46190        2.30100       -3.25170
H         -0.59260        1.46910       -4.58780
H          0.27440        2.20270       -1.98960
H          1.26090        1.19920       -3.04200
H          1.28430       -1.92100        1.47320
H         -1.35880       -2.13700        0.01000
H         -1.11420       -1.68080        1.72140
H         -1.46610       -4.27660        1.19990
H          0.10630       -3.88310        2.00500
H         -0.45770       -4.11020       -0.98280
H          0.74190       -5.12950       -0.13250
H          1.22630       -2.72320       -1.48950
H          2.30740       -3.18070       -0.11510
H         -0.76300        1.00400        1.16920
H          1.94070        1.77900        2.30600
H          0.72840        0.63420        3.06070
H          0.54600        3.18430        3.80440
H         -0.94260        2.53330        2.99870
H          1.40510        3.98970        1.71520
H         -0.27640        4.59470        1.64200
H          1.02750        3.04440       -0.23620
H         -0.79290        2.86850       -0.03570
H          2.95330       -0.85000       -2.68020
H          4.30940        1.85940       -2.22570
H          3.83900        1.08490       -3.86790
H          5.79800       -0.40330       -2.17770
H          8.19490       -0.50140       -2.18580
H          8.22890        0.13100        2.04850
H          5.83600        0.21590        2.04870
