102

P          0.95650       -0.07320       -0.05240
C          0.09830       -1.21040        1.34120
C         -1.42710       -1.30990        1.54380
C         -2.12220       -2.32960        0.65260
C         -1.59930       -3.73940        1.02270
C         -0.05680       -3.85620        1.09020
C          0.58780       -2.66010        1.77040
C          0.36100        1.70950        0.32290
C         -1.09120        2.23700       -0.06920
C         -2.27240        1.99660        0.90220
C         -1.88180        2.26820        2.38100
C         -0.48410        1.77550        2.78770
C          0.62540        2.18410        1.76880
C          0.29320       -1.12110       -1.64300
C          0.94800       -0.70370       -2.96400
C          2.23320       -1.53650       -3.18020
C          1.97710       -3.03090       -3.41520
C          1.25850       -3.59370       -2.21580
C          0.03950       -2.69060       -1.91680
Ni         3.41650       -0.07320       -0.05240
Br         3.41650        1.26410       -2.27050
C          3.41650       -1.18330        1.78890
C          3.98130       -1.95670        2.71720
P          5.87650       -0.07320       -0.05240
C          6.61440       -1.45390        1.02940
C          6.24440       -2.85660        0.85030
C          5.34090       -3.44090       -0.19680
C          6.59070       -3.83120        1.81050
C          7.25500       -3.48170        2.96220
C          7.65200       -2.16000        3.14700
C          7.37340       -1.16260        2.18850
C          6.45320       -0.41620       -1.81230
C          7.74020       -0.08680       -2.37660
C          8.78530        0.75220       -1.70670
C          8.08430       -0.54310       -3.66820
C          7.21690       -1.33110       -4.41440
C          5.96290       -1.62210       -3.90310
C          5.62200       -1.14860       -2.64160
C          6.13440        1.70110        0.43270
C          6.18850        2.22220        1.77410
C          5.88250        1.46080        3.03110
C          6.56770        3.56320        1.98650
C          6.84290        4.41250        0.92170
C          6.73220        3.94200       -0.37820
C          6.38970        2.60880       -0.61840
H          0.48620       -0.68400        2.20070
H         -1.85430       -0.36900        1.50690
H         -1.64690       -1.61970        2.59170
H         -2.01330       -2.02310       -0.39330
H         -3.21870       -2.31350        0.82720
H         -2.01920       -4.51360        0.34370
H         -1.97990       -3.95140        2.04380
H          0.45790       -3.97360        0.15780
H          0.21290       -4.80080        1.60930
H          1.66450       -2.83620        1.76070
H          0.28910       -2.78520        2.84170
H          1.01520        2.28030       -0.37010
H         -1.38510        1.96390       -1.10200
H         -1.00680        3.34590       -0.05120
H         -2.76060        1.05110        0.65920
H         -3.13800        2.65290        0.66890
H         -2.64610        1.83390        3.07200
H         -1.87500        3.36280        2.53390
H         -0.58110        0.72100        2.98420
H         -0.21990        2.17630        3.78750
H          1.63640        1.86070        2.08700
H          0.61970        3.29720        1.75740
H         -0.74240       -0.73240       -1.66990
H          1.08220        0.38850       -2.96520
H          0.28330       -0.92020       -3.82870
H          2.75400       -1.46510       -2.22180
H          2.81140       -1.15470       -4.04520
H          2.92240       -3.60490       -3.57340
H          1.35810       -3.16700       -4.33610
H          1.95660       -3.64900       -1.35520
H          0.93580       -4.64020       -2.45130
H         -0.65160       -3.21660       -1.28270
H         -0.57620       -2.76890       -2.84380
H          2.49310       -0.89720        2.21850
H          4.93580       -2.35090        2.74470
H          3.41060       -2.19660        3.61710
H          4.91520       -2.69580       -0.83010
H          4.45340       -3.92370        0.26780
H          5.87800       -4.21000       -0.79420
H          6.25300       -4.86000        1.70540
H          7.42040       -4.23470        3.72690
H          8.15020       -1.91100        4.08070
H          7.68760       -0.16480        2.40960
H          8.49020        1.11690       -0.71410
H          8.99330        1.63350       -2.36050
H          9.71960        0.16590       -1.59750
H          9.04830       -0.30550       -4.10290
H          7.49720       -1.69360       -5.40140
H          5.27310       -2.23130       -4.47940
H          4.67470       -1.40790       -2.30210
H          5.48200        0.45610        2.83380
H          5.11110        2.00760        3.61510
H          6.79180        1.41020        3.67380
H          6.65450        3.96240        2.99290
H          7.13450        5.43960        1.10700
H          6.93030        4.60990       -1.20680
H          6.34300        2.28460       -1.64700
