90

P          0.92020        0.04400       -0.04110
C          0.07010       -0.03490       -1.62800
C         -1.32390       -0.05410       -1.82130
C         -1.83130       -0.21550       -3.12440
C         -0.96090       -0.34710       -4.21590
C          0.41530       -0.29550       -4.02090
C          0.92350       -0.13190       -2.73890
C          0.48340       -1.71070        0.40840
C         -0.28110       -2.60960       -0.39340
C         -0.66400       -3.86620        0.08410
C         -0.29340       -4.27470        1.35870
C          0.47280       -3.41730        2.15990
C          0.84140       -2.15290        1.69540
C          0.28480        1.57350        0.70190
C         -0.49560        1.49370        1.87020
C         -0.96240        2.65550        2.50260
C         -0.64410        3.90930        1.97070
C          0.11910        3.99970        0.80120
C          0.57300        2.83670        0.15850
Ni         3.38020        0.04400       -0.04110
Br         3.38020       -2.19660       -1.34020
C          3.38020        1.90400        1.03740
C          4.01710        2.98010        0.59120
C          5.53020        0.04400       -0.04110
N          6.32160       -1.04680       -0.14320
C          5.98890       -2.47850        0.05760
C          6.72650       -3.61800       -0.49260
C          8.09030       -3.69780       -1.17250
C          6.16830       -4.91800       -0.38310
C          5.00220       -5.15960        0.32430
C          4.31800       -6.48380        0.33160
C          4.45870       -4.14030        1.07500
C          4.94440       -2.83560        0.99070
C          4.36360       -1.87080        1.95950
C          7.70760       -0.67910       -0.14020
C          7.67980        0.76550       -0.36600
N          6.45790        1.16930        0.24930
C          6.54030        2.35450        1.11340
C          7.21240        3.54770        0.61360
C          7.86560        3.72710       -0.75120
C          7.23000        4.72930        1.36310
C          6.56960        4.82610        2.57420
C          6.50420        6.14520        3.30030
C          5.93440        3.70420        3.09420
C          5.92680        2.45640        2.42120
C          5.21710        1.32360        3.14470
H         -2.00490        0.01580       -0.98190
H         -2.89740       -0.25660       -3.29800
H         -1.34350       -0.49110       -5.21780
H          1.09400       -0.39430       -4.85850
H          1.99830       -0.10630       -2.61480
H         -0.62980       -2.38760       -1.38340
H         -1.26900       -4.52090       -0.53500
H         -0.60110       -5.24810        1.72340
H          0.74450       -3.74900        3.15480
H          1.39940       -1.50640        2.35720
H         -0.73020        0.53250        2.30390
H         -1.55740        2.58590        3.41210
H         -0.98030        4.81170        2.46580
H          0.37210        4.97200        0.39830
H          1.17720        2.92700       -0.73720
H          2.54240        2.24050        1.62780
H          4.66260        2.94490       -0.27280
H          3.80630        3.95060        1.04290
H          8.79560       -2.87490       -1.13860
H          8.01210       -4.06640       -2.21270
H          8.69270       -4.44050       -0.60270
H          6.66440       -5.76540       -0.85130
H          4.86530       -7.24010       -0.26580
H          3.31980       -6.33220       -0.13840
H          4.16530       -6.84820        1.36760
H          3.61160       -4.35610        1.70880
H          5.20540       -1.42070        2.51520
H          3.75830       -1.11740        1.49090
H          3.69370       -2.34400        2.70230
H          8.29340       -1.03050       -0.98470
H          8.15110       -0.93810        0.85110
H          7.54420        0.88310       -1.46850
H          8.60890        1.27840       -0.02690
H          7.71000        2.93770       -1.48790
H          8.95900        3.89320       -0.62950
H          7.43570        4.61590       -1.25830
H          7.71260        5.61360        0.96060
H          7.12410        6.92780        2.80860
H          6.85040        6.02600        4.34660
H          5.45320        6.50610        3.30510
H          5.43230        3.82120        4.04610
H          4.67260        1.72300        4.03010
H          5.94430        0.53580        3.36160
H          4.41250        0.76430        2.67270
