80

P          1.07050        0.01310        0.06970
C          0.20030       -0.07200       -1.51790
C         -1.19540       -0.10480       -1.68320
C         -1.73140       -0.27270       -2.97360
C         -0.88760       -0.39660       -4.08940
C          0.49310       -0.33390       -3.92760
C          1.02980       -0.16520       -2.65480
C          0.70750       -1.75810        0.49640
C         -0.08040       -2.65800       -0.28080
C         -0.40440       -3.93310        0.18830
C          0.05700       -4.36400        1.42620
C          0.84800       -3.51540        2.19960
C          1.16300       -2.22530        1.74420
C          0.31620        1.45510        0.86870
C         -0.42420        1.25710        2.04710
C         -0.97430        2.34570        2.73320
C         -0.78730        3.64230        2.25070
C         -0.07530        3.84920        1.06560
C          0.45910        2.75990        0.36370
Ni         3.53050        0.01310        0.06970
Br         3.53050       -2.21220       -1.25550
C          3.53050        1.86040        1.16970
C          4.47160        2.39180        1.94980
C          5.68050        0.01310        0.06970
N          6.50260       -1.13640       -0.01780
C          6.25600       -2.60780        0.17400
C          6.07060       -3.60130       -1.03030
C          6.30140       -3.07130       -2.46990
C          5.34240       -3.68910       -3.52190
C          7.78200       -0.67670        0.02210
C          7.79050        0.67830        0.10660
C          9.00030        1.39530        0.20650
C         10.22050        0.68940        0.19230
C         10.21750       -0.71020        0.07780
C          9.00330       -1.41080        0.00470
N          6.52010        1.14870        0.04350
C          6.23390        2.59090       -0.24700
C          7.09360        3.30410       -1.36310
C          7.20610        2.60540       -2.72090
C          8.23640        3.32360       -3.61240
H         -1.84970       -0.03330       -0.82550
H         -2.80140       -0.32610       -3.11670
H         -1.30290       -0.54580       -5.08150
H          1.15150       -0.43010       -4.78440
H          2.10630       -0.13420       -2.55380
H         -0.49660       -2.42080       -1.23990
H         -1.03250       -4.58520       -0.40930
H         -0.20500       -5.35320        1.78450
H          1.20330       -3.85620        3.16320
H          1.75240       -1.58160        2.38160
H         -0.56500        0.26100        2.44760
H         -1.53320        2.18660        3.64750
H         -1.19320        4.48590        2.79590
H          0.07280        4.85690        0.69990
H          1.02390        2.93640       -0.54210
H          2.63300        2.41510        1.21150
H          5.42890        1.92830        2.12250
H          4.26550        3.33580        2.45300
H          5.53420       -2.78600        0.99730
H          7.14380       -3.03080        0.68550
H          5.07790       -4.07040       -0.90970
H          6.60490       -4.56360       -0.87630
H          7.34950       -3.30410       -2.73840
H          6.15950       -1.97180       -2.52660
H          5.26350       -4.79030       -3.43090
H          5.66810       -3.41390       -4.54430
H          4.31010       -3.28920       -3.46010
H          9.07940        2.45130        0.34350
H         11.16020        1.22830        0.26450
H         11.16080       -1.23440        0.05940
H          9.05130       -2.48030       -0.08120
H          6.43600        3.22310        0.64260
H          5.18090        2.69010       -0.57980
H          8.11350        3.51040       -1.02600
H          6.69050        4.32950       -1.52160
H          6.21300        2.60320       -3.21260
H          7.55880        1.56170       -2.58930
H          7.98750        4.39940       -3.73850
H          8.27760        2.84860       -4.61510
H          9.25460        3.25380       -3.16430
