66

P          0.95440       -0.08660        0.02050
C          0.09550        1.33230        0.75870
C         -1.27510        1.47230        1.07090
C         -1.75380        2.69070        1.57300
C         -0.90050        3.78490        1.72760
C          0.44760        3.66480        1.39860
C          0.93460        2.45240        0.91800
C          0.60750        0.06030       -1.73970
C          1.00180        1.20880       -2.45080
C          0.78830        1.29060       -3.83050
C          0.17540        0.23220       -4.50810
C         -0.23210       -0.90510       -3.80510
C         -0.01970       -0.99080       -2.42610
C          0.35830       -1.46740        1.03030
C         -1.00030       -1.82320        0.90230
C         -1.52070       -2.94170        1.55020
C         -0.68330       -3.74450        2.32620
C          0.67030       -3.41760        2.44900
C          1.19880       -2.28860        1.79620
Ni         3.41440       -0.08660        0.02050
Br         3.41440        0.41930        2.56060
C          3.41440       -0.50650       -2.08810
C          3.20580       -1.73800       -2.54780
P          5.87440       -0.08660        0.02050
C          6.74860        1.41710       -0.64530
C          6.41830        1.69880       -2.11990
C          6.24720        2.64860        0.14730
C          6.41180       -0.04490        1.80700
C          6.03710       -1.37770        2.48560
C          7.91980        0.16100        2.00900
C          6.36820       -1.22110       -1.32070
H         -1.97790        0.67600        0.95970
H         -2.80130        2.80000        1.82410
H         -1.27390        4.73400        2.09010
H          1.11340        4.51340        1.50130
H          1.98660        2.39440        0.65510
H          1.49400        2.02490       -1.94090
H          1.10860        2.16840       -4.37500
H          0.02020        0.29120       -5.57760
H         -0.70100       -1.72580       -4.33240
H         -0.32190       -1.88770       -1.89910
H         -1.66410       -1.26710        0.25920
H         -2.56600       -3.20020        1.42640
H         -1.09080       -4.61810        2.81470
H          1.31560       -4.05840        3.03300
H          2.25330       -2.08280        1.87030
H          3.69500        0.27180       -2.78730
H          3.00910       -2.55320       -1.86220
H          3.27880       -1.93380       -3.61380
H          7.84860        1.31830       -0.55610
H          5.32200        1.79340       -2.26440
H          6.82600        0.92390       -2.79350
H          6.88670        2.65410       -2.43740
H          5.14000        2.73930        0.06160
H          6.69970        3.58580       -0.23930
H          6.49910        2.60720        1.22220
H          5.93070        0.80290        2.32040
H          6.64860       -2.21100        2.08490
H          4.98270       -1.66930        2.32160
H          6.20580       -1.30300        3.58280
H          8.50030       -0.64980        1.52360
H          8.14670        0.16230        3.09840
H          8.26190        1.13960        1.62620
H          5.95610       -0.99110       -2.31410
H          6.02070       -2.23560       -1.02880
H          7.47820       -1.25850       -1.36330
