48

P          0.98170       -0.05450        0.08180
F         -0.67910       -0.15310        0.26670
F          0.96160        1.53450        0.60910
F          0.86380       -0.43350       -1.54480
Pd         3.44170       -0.05450        0.08180
Br         3.28480        1.61960       -1.75280
C          3.43620       -1.32920        1.72640
C          3.84200       -0.80040        2.89120
C          5.59170       -0.05450        0.08180
N          6.36050       -1.16450        0.22330
C          5.86800       -2.55240        0.18170
C          6.40040       -3.29620       -1.05910
C          6.16430       -3.32830        1.46120
C          7.63730       -0.70660        0.20520
C          7.62930        0.66350        0.08140
C          8.81270        1.42210        0.08230
C         10.03000        0.74720        0.14630
C         10.05600       -0.66440        0.22720
C          8.85820       -1.40480        0.26160
N          6.35720        1.09480       -0.01300
C          5.97770        2.53750        0.10020
C          5.71400        3.01140        1.53980
C          5.82810        2.14850        2.64490
C          5.50380        2.57860        3.93820
C          5.08760        3.89010        4.16240
C          5.01880        4.78450        3.09430
C          5.32880        4.35320        1.79090
H          3.07680       -2.34620        1.69280
H          4.15370        0.22930        2.91550
H          3.86190       -1.36310        3.81290
H          4.77220       -2.53070        0.03660
H          7.49590       -3.44290       -1.03170
H          6.14840       -2.73370       -1.98340
H          5.93310       -4.30170       -1.13170
H          7.25200       -3.44180        1.62580
H          5.70560       -4.33940        1.38770
H          5.71750       -2.81170        2.33220
H          8.80520        2.49790        0.02280
H         10.95550        1.30180        0.13420
H         11.01000       -1.17740        0.25720
H          8.90630       -2.47700        0.33260
H          5.09100        2.77010       -0.47800
H          6.76590        3.18160       -0.33950
H          6.14900        1.12880        2.51340
H          5.56180        1.88620        4.76770
H          4.82390        4.21120        5.16490
H          4.71220        5.80730        3.28200
H          5.25280        5.07080        0.98420
