26

P          0.94920        0.03120        0.08030
F         -0.71630       -0.09150       -0.03430
F          0.93350       -0.94200        1.44230
F          0.81650        1.69710        0.16170
Pd         3.40920        0.03120        0.08030
Br         3.25080        1.98630        1.63770
C          3.38310       -1.43230       -1.40050
C          2.84850       -2.64230       -1.29090
N          5.50920        0.03120        0.08030
C          6.19590        1.12850        0.53300
C          7.58770        1.23940        0.36010
O          8.27110        2.39240        0.58540
C          7.69320        3.64200        0.70290
C          8.29630        0.14880       -0.14220
C          7.60430       -0.98900       -0.55730
C          6.20940       -1.00680       -0.47010
H          3.83970       -1.14500       -2.34490
H          2.37650       -2.96340       -0.37860
H          2.89270       -3.30460       -2.15400
H          5.67760        1.98430        0.89710
H          8.48480        4.41860        0.66950
H          7.12780        3.72980        1.64940
H          7.01370        3.83340       -0.16360
H          9.36950        0.19800       -0.27360
H          8.14140       -1.83060       -0.96360
H          5.71900       -1.89290       -0.82950
