27

P          0.95590        0.01750       -0.08810
F         -0.71750        0.04800       -0.06210
F          0.95250        0.99870       -1.44450
F          0.91970       -1.65110       -0.22030
Pd         3.41590        0.01750       -0.08810
Br         3.30830       -1.42970       -2.11890
C          3.44880        1.45190        1.40560
C          2.82830        1.29750        2.56520
P          5.87590        0.01750       -0.08810
O          7.32410        0.20900       -0.94080
C          7.12020        1.44580       -1.61500
O          6.40110        0.96330        1.24060
C          6.58080        0.14840        2.36090
O          5.94460       -1.52850       -0.81010
C          5.55930       -2.47900        0.14160
H          3.97800        2.37940        1.19430
H          2.28590        0.39180        2.78210
H          2.86540        2.10190        3.29870
H          8.02840        1.77330       -2.14860
H          6.88470        2.29780       -0.91590
H          6.29390        1.37990       -2.38430
H          7.31620        0.66300        3.02350
H          7.02880       -0.83290        2.13800
H          5.62410        0.06390        2.92490
H          5.46840       -3.45370       -0.38180
H          4.56140       -2.25900        0.57280
H          6.33300       -2.61300        0.92440
