73

P          1.05920       -0.08000        0.00950
C          0.26210       -1.10680        1.34780
C         -1.26660       -1.24050        1.40910
C          0.86590       -2.52130        1.26630
C          0.67630        1.70880        0.32190
C          1.25040        2.54000       -0.82890
C         -0.83360        1.99440        0.37840
C          0.39670       -0.89870       -1.48160
Pd         3.51920       -0.08000        0.00950
Br         3.51920        0.91270        2.40170
C          3.51920       -0.90410       -1.97630
C          3.74150       -2.15420       -2.37870
C          5.66920       -0.08000        0.00950
N          6.33200        1.08790        0.24910
C          5.89870        2.39330       -0.34770
C          7.09860        3.09830       -1.05860
C          6.62550        4.23980       -1.94770
C          5.83670        5.25170       -1.11880
C          4.67920        4.56350       -0.37530
C          5.17780        3.41170        0.53610
C          7.63770        0.79170        0.35820
C          7.79040       -0.52720        0.11810
N          6.59060       -1.09380       -0.14020
C          6.53370       -2.54490       -0.37990
C          7.22740       -3.31490        0.78670
C          7.34410       -4.81570        0.49250
C          8.12220       -5.03920       -0.81150
C          7.38580       -4.36430       -1.97380
C          7.26140       -2.85810       -1.71900
H          0.60920       -0.67880        2.31360
H         -1.68410       -1.66480        0.47730
H         -1.78510       -0.31210        1.66210
H         -1.52650       -1.92850        2.24500
H          0.52910       -3.05700        0.35580
H          0.56040       -3.13120        2.14270
H          1.97700       -2.47440        1.26030
H          1.13410        2.04970        1.27180
H          0.77740        2.25230       -1.79500
H          2.34450        2.39870       -0.90470
H          1.04510        3.62120       -0.65890
H         -1.35640        1.57550       -0.51200
H         -1.03200        3.08590        0.41070
H         -1.27620        1.61490        1.30570
H         -0.71300       -0.83030       -1.44430
H          0.69330       -1.95820       -1.56560
H          0.71750       -0.34420       -2.38490
H          3.27260       -0.17880       -2.74530
H          3.95850       -2.96550       -1.71520
H          3.69720       -2.37540       -3.44200
H          5.18360        2.10880       -1.15350
H          7.64810        2.38390       -1.70670
H          7.80570        3.50040       -0.29620
H          5.98870        3.81760       -2.75570
H          7.50340        4.73250       -2.42370
H          5.44210        6.03700       -1.79930
H          6.51320        5.73010       -0.37920
H          3.97900        4.14710       -1.13540
H          4.12390        5.31340        0.22130
H          4.28310        2.97130        0.99390
H          5.85120        3.79530        1.33230
H          8.45820        1.48540        0.47290
H          8.75340       -1.01360        0.09860
H          5.49930       -2.89050       -0.40200
H          6.66850       -3.15200        1.73310
H          8.26680       -2.95950        0.94790
H          6.33310       -5.26640        0.40560
H          7.88130       -5.31320        1.33010
H          8.21850       -6.12880       -1.00990
H          9.15040       -4.61950       -0.71860
H          6.37610       -4.81260       -2.08620
H          7.95140       -4.53270       -2.91690
H          6.72610       -2.37600       -2.56340
H          8.29440       -2.44450       -1.69790
