84

P          0.93570       -0.02190        0.07340
C          0.08520        1.72490       -0.07320
C         -1.45480        1.76250       -0.14320
C          0.51670        2.60230        1.12890
C          0.57540        2.53380       -1.30580
C          0.63780       -1.03470       -1.57960
C          1.23480       -0.49350       -2.90500
C          1.29090       -2.44460       -1.51190
C         -0.87500       -1.22860       -1.82980
C          0.06280       -0.56710        1.70720
C         -0.15380       -2.01360        2.38470
C          1.14020       -2.66240        2.84740
C         -1.02950       -1.83600        3.65500
C         -0.89880       -3.04580        1.52170
Pd         3.39570       -0.02190        0.07340
Br         3.70960        1.37970       -1.95990
C          3.36810        0.13740        2.18930
C          3.45650       -0.84560        3.08920
P          5.85570       -0.02190        0.07340
O          7.15840        1.04400       -0.22050
C          6.77360        2.31980        0.31560
C          6.92830        2.39900        1.85760
C          7.63060        3.42420       -0.29090
O          6.45050       -0.44670        1.61500
C          6.14430       -1.78050        1.97620
C          6.90760       -2.91630        1.28320
C          6.39310       -1.85850        3.49010
O          6.51450       -1.02370       -1.14180
C          5.94070       -1.11470       -2.39380
C          6.53110       -0.01750       -3.28070
C          6.40080       -2.48110       -2.93960
H         -1.95900        1.35650        0.74910
H         -1.86290        1.28280       -1.04220
H         -1.80310        2.81350       -0.22350
H          0.16380        2.21010        2.09360
H          0.09200        3.63030        1.03820
H          1.62290        2.71850        1.16010
H          0.25390        2.11170       -2.25740
H          1.65800        2.70730       -1.26870
H          0.14780        3.55770       -1.31920
H          2.33230       -0.56280       -2.91270
H          0.90430        0.49170       -3.22530
H          0.93140       -1.14750       -3.75580
H          2.39460       -2.38070       -1.43440
H          1.05400       -3.02890       -2.43490
H          0.97880       -3.08800       -0.71240
H         -1.34230       -0.30090       -2.18650
H         -1.40020       -1.61130       -0.93430
H         -1.06060       -1.94520       -2.66110
H         -0.98820       -0.28970        1.53680
H          0.46010        0.09310        2.50170
H          1.51380       -2.08390        3.70350
H          1.81750       -2.75700        1.97950
H          0.97020       -3.68240        3.26410
H         -0.58260       -1.12300        4.37050
H         -1.16360       -2.80560        4.18480
H         -2.05490       -1.46940        3.38740
H         -0.31610       -3.40660        0.69550
H         -1.87370       -2.66900        1.15270
H         -1.08720       -3.97460        2.10950
H          3.24220        1.13020        2.59140
H          3.55340       -1.89950        2.85990
H          3.41990       -0.64610        4.15480
H          5.72180        2.58100        0.05860
H          7.97660        2.20060        2.16720
H          6.25850        1.70780        2.40410
H          6.63720        3.41170        2.22480
H          8.70050        3.25260       -0.06910
H          7.33910        4.41710        0.13950
H          7.48550        3.47220       -1.38330
H          5.12230       -1.99490        1.68530
H          8.00130       -2.86090        1.43240
H          6.66270       -2.97370        0.20590
H          6.53830       -3.88040        1.71210
H          7.48030       -1.75790        3.70240
H          6.02370       -2.81540        3.91200
H          5.89360       -1.01850        4.01530
H          4.83990       -1.11510       -2.34890
H          7.64400       -0.09200       -3.29950
H          6.27840        0.98030       -2.87480
H          6.14050       -0.08750       -4.31010
H          7.51910       -2.54860       -2.94160
H          6.04210       -2.65750       -3.96950
H          6.03010       -3.30370       -2.28670
