65

P          0.94580        0.06540       -0.05280
C          0.12550       -0.33550       -1.75690
C         -1.42380       -0.37240       -1.81180
C          0.57700        0.70760       -2.79870
C          0.63540       -1.68090       -2.31780
C          0.56930       -1.44100        1.19660
C          1.11120       -2.86080        0.87960
C          1.17380       -1.22390        2.61930
C         -0.94790       -1.62150        1.38850
C          0.20780        1.80430        0.21670
C          0.20520        2.68610        1.54740
C          1.60540        3.08190        1.99580
C         -0.57220        4.00440        1.26060
C         -0.52120        2.06920        2.74810
Pd         3.40580        0.06540       -0.05280
Br         3.77430       -2.36260       -0.52350
C          3.51900        2.12980       -0.20780
C          4.27520        2.75550        0.72130
N          5.50580        0.06540       -0.05280
C          6.18990       -0.87750        0.66020
C          7.58440       -0.79570        0.80620
C          8.30020        0.18310        0.08970
O          9.64730        0.32120        0.16240
C         10.46430       -0.21800        1.13240
C          7.59410        1.07200       -0.68720
C          6.20670        1.04550       -0.68870
H         -1.88310        0.56740       -1.50370
H         -1.85490       -1.18690       -1.22090
H         -1.76480       -0.59270       -2.84670
H          0.21210        1.72200       -2.57300
H          0.16240        0.45530       -3.80260
H          1.67980        0.71670       -2.90030
H          0.18500       -2.53720       -1.80960
H          1.74320       -1.72010       -2.31060
H          0.31610       -1.83280       -3.37470
H          2.15880       -2.96780        1.16920
H          0.91110       -3.27940       -0.10360
H          0.68200       -3.61340        1.57680
H          2.27490       -1.06990        2.58440
H          0.99870       -2.12500        3.26230
H          0.72760       -0.49120        3.24820
H         -1.40320       -2.10710        0.51790
H         -1.45340       -0.66750        1.63630
H         -1.16500       -2.34040        2.21240
H         -0.87710        1.67810        0.02040
H          0.61290        2.45190       -0.58670
H          2.04310        3.72450        1.21050
H          2.19130        2.16500        2.20040
H          1.58630        3.68800        2.92240
H         -0.11520        4.57180        0.42580
H         -0.56200        4.66520        2.15770
H         -1.63560        3.79750        1.01910
H          0.06840        1.29140        3.16360
H         -1.54350        1.71510        2.50670
H         -0.58320        2.78850        3.59490
H          3.05140        2.69530       -1.00160
H          4.75130        2.17460        1.51220
H          4.41750        3.83150        0.72000
H          5.65300       -1.60410        1.25610
H          8.08110       -1.48640        1.46950
H         11.51250        0.05230        0.90120
H         10.37620       -1.32240        1.15490
H         10.19320        0.21290        2.11910
H          8.11410        1.82070       -1.29250
H          5.69420        1.74700       -1.33170
