66

P          0.95680        0.05410        0.07220
C          0.24210        1.55960       -0.65760
C         -1.09250        1.77370       -1.04770
C         -1.46100        2.94560       -1.72450
C         -0.49910        3.93990       -2.01540
Cl        -0.93910        5.40060       -2.87040
C          0.82400        3.72820       -1.64360
C          1.19060        2.55710       -0.99490
C          0.68390       -1.08990       -1.29990
C          1.19870       -0.78700       -2.57550
C          1.16860       -1.74850       -3.59440
C          0.60370       -3.00200       -3.35470
Cl         0.65160       -4.23540       -4.60420
C          0.03000       -3.28380       -2.10980
C          0.06610       -2.33030       -1.08320
C          0.13440       -0.00020        1.68240
C         -1.26730       -0.13800        1.71640
C         -1.94490       -0.34120        2.91510
C         -1.23230       -0.42380        4.10890
Cl        -2.09050       -0.72970        5.60940
C          0.16310       -0.29340        4.09620
C          0.84840       -0.08510        2.88580
Pd         3.41680        0.05410        0.07220
Br         3.41680        2.19460        1.53040
C          3.41680       -1.72280       -1.13830
C          4.06270       -1.78450       -2.27700
P          5.87680        0.05410        0.07220
C          7.07200       -1.29180       -0.66290
C          7.14150       -1.53630       -2.20790
C          8.52470       -1.33330       -0.16950
C          6.39070        1.72570       -0.52190
C          7.91810        1.86530       -0.58340
C          5.83180        1.96630       -1.93420
C          6.09730       -0.29130        1.84660
H         -1.85110        1.03100       -0.90150
H         -2.47640        3.10570       -2.03490
H          1.58890        4.46190       -1.89420
H          2.23120        2.41580       -0.78890
H          1.69570        0.15700       -2.75970
H          1.63170       -1.53110       -4.55000
H         -0.40570       -4.25770       -1.92440
H         -0.33300       -2.58160       -0.11000
H         -1.85210       -0.14220        0.81690
H         -3.02310       -0.46150        2.90740
H          0.71480       -0.38030        5.02250
H          1.92670       -0.03240        2.88850
H          2.75880       -2.54570       -0.88600
H          4.60900       -0.91290       -2.61020
H          3.98520       -2.67340       -2.89840
H          6.65080       -2.24110       -0.25890
H          7.33480       -0.63310       -2.80790
H          6.32850       -2.13010       -2.62820
H          7.94560       -2.25800       -2.46660
H          9.16330       -0.55900       -0.61740
H          8.96900       -2.30640       -0.49870
H          8.60000       -1.34620        0.92500
H          5.97600        2.49100        0.15920
H          8.33880        1.22030       -1.38140
H          8.38960        1.61570        0.39180
H          8.20770        2.90200       -0.86370
H          6.20960        1.21910       -2.65990
H          6.13800        2.96580       -2.31160
H          4.72490        1.90840       -1.93420
H          5.72220       -1.31950        2.04740
H          5.54550        0.42860        2.47380
H          7.16690       -0.24790        2.12380
