82

P          0.97700       -0.04730        0.08510
C         -0.06280       -1.17940        1.14720
C         -0.39500       -2.49490        0.72190
C         -0.81370       -3.48120        1.64330
C         -0.87810       -3.19590        3.00700
F         -1.18460       -4.17510        3.90080
C         -0.56920       -1.91480        3.45530
C         -0.17900       -0.91430        2.54480
C          0.60860        1.51710        0.93360
C          1.62850        2.33110        1.43280
C          1.31610        3.53790        2.07320
C         -0.01520        3.93720        2.22570
F         -0.30750        5.10760        2.84650
C         -1.04330        3.12980        1.73890
C         -0.73640        1.92650        1.09410
C          0.36700       -0.02010       -1.64040
C         -0.24390        1.13810       -2.15900
C         -0.72030        1.17410       -3.47410
C         -0.60140        0.05330       -4.29470
F         -1.06290        0.09580       -5.57080
C         -0.00590       -1.10890       -3.79860
C          0.47990       -1.14850       -2.47990
Pd         3.43700       -0.04730        0.08510
Br         3.14720        1.63810       -1.73390
C          3.61540       -1.49780        1.63350
C          2.79880       -2.19630        2.41010
C          5.58700       -0.04730        0.08510
N          6.47100       -1.10780        0.26110
C          6.32100       -2.56580        0.49470
C          7.19200       -3.03060        1.71100
C          6.91930       -4.50690        2.00840
C          7.19100       -5.35690        0.75680
C          6.34870       -4.86930       -0.43620
C          6.62840       -3.38560       -0.75130
C          7.70670       -0.59280        0.06660
C          7.61980        0.75050       -0.08230
N          6.32250        1.10020       -0.04500
C          5.87230        2.47110        0.26260
C          6.62340        3.52400       -0.56080
C          5.98660        4.89220       -0.31180
C          6.07790        5.29240        1.17090
C          5.48000        4.20810        2.08000
C          6.10360        2.82850        1.77750
H         -0.26560       -2.80770       -0.30100
H         -1.02860       -4.49450        1.31760
H         -0.56180       -1.71970        4.52260
H          0.15460        0.01740        2.97220
H          2.66010        2.03490        1.32330
H          2.10570        4.16800        2.45330
H         -2.07610        3.43890        1.86050
H         -1.55170        1.31570        0.72240
H         -0.35280        2.02540       -1.55680
H         -1.18290        2.07510       -3.85750
H          0.07750       -1.97710       -4.44210
H          0.93670       -2.06220       -2.12600
H          4.61380       -1.62160        1.96160
H          1.77430       -2.17710        2.36810
H          3.23400       -2.83600        3.19810
H          5.28800       -2.86460        0.64260
H          6.96220       -2.43580        2.62270
H          8.28290       -2.90360        1.50980
H          5.85600       -4.61010        2.31620
H          7.54960       -4.85900        2.85700
H          6.93510       -6.41480        0.97790
H          8.26920       -5.29580        0.49730
H          5.27220       -4.99170       -0.17250
H          6.54530       -5.48250       -1.33720
H          5.93020       -3.05160       -1.55190
H          7.67100       -3.22920       -1.09680
H          8.63390       -1.15140        0.08310
H          8.46340        1.42420       -0.14680
H          4.78750        2.52480        0.10510
H          6.56460        3.26310       -1.63320
H          7.69950        3.56060       -0.26230
H          4.92110        4.83200       -0.62050
H          6.49770        5.65470       -0.93370
H          5.53600        6.25200        1.32510
H          7.14320        5.44920        1.44550
H          4.38900        4.14000        1.89860
H          5.62610        4.49910        3.14640
H          5.63550        2.08030        2.45530
H          7.19120        2.85710        2.03360
