45

P          0.99190       -0.07160        0.06940
C          0.18520        1.55160        0.50300
C         -1.34690        1.62200        0.62640
C          0.79710        2.04050        1.82530
C          0.65040       -0.42700       -1.71170
C          1.24040       -1.80490       -2.03940
C         -0.84720       -0.46160       -2.04430
C          0.40690       -1.12760        1.43640
Pd         3.45190       -0.07160        0.06940
Br         3.45190        1.77460       -1.74710
C          3.45190       -1.60410        1.57730
C          3.36700       -1.33100        2.87780
N          5.55190       -0.07160        0.06940
C          5.89060        0.61280        1.34020
C          6.12000       -1.42610        0.28430
C          6.21910        0.67030       -1.01680
H          0.50890        2.27500       -0.27510
H         -1.72710        0.93750        1.40150
H         -1.87830        1.44790       -0.31230
H         -1.62430        2.66270        0.91540
H          0.48050        1.41030        2.68290
H          0.48170        3.08060        2.04670
H          1.90920        2.02980        1.76830
H          1.12880        0.33110       -2.36480
H          0.76140       -2.59000       -1.41720
H          2.33330       -1.80960       -1.85230
H          1.06620       -2.05020       -3.10710
H         -1.39630       -1.13070       -1.34000
H         -1.00950       -0.82540       -3.06950
H         -1.27230        0.55300       -2.03510
H         -0.70580       -1.14860        1.42250
H          0.74520       -0.77250        2.42420
H          0.75220       -2.16870        1.27480
H          3.50520       -2.63840        1.25260
H          3.30140       -0.30490        3.22180
H          3.36380       -2.14070        3.60080
H          5.45540        0.11120        2.22540
H          5.47090        1.64180        1.33750
H          6.99190        0.68850        1.49760
H          5.85150       -1.90270        1.24710
H          7.23330       -1.40660        0.25800
H          5.78130       -2.09230       -0.53690
H          5.98750        1.75460       -0.98510
H          5.92960        0.24070       -1.99880
H          7.32650        0.59710       -0.93110
