45

P          0.95360       -0.05120        0.07230
Cl        -0.81610        0.22210       -0.97330
Cl         0.93980       -2.06710       -0.42100
Cl         0.08140        0.60470        1.83880
Pd         3.41360       -0.05120        0.07230
Br         3.17010       -0.14970       -2.41830
C          3.35170        1.13980        1.77500
C          2.88240        2.38400        1.68720
P          5.87360       -0.05120        0.07230
C          6.46970        1.56520       -0.55660
C          6.13090        2.70480        0.20860
C          6.49550        3.98670       -0.19360
C          7.19360        4.16870       -1.38220
F          7.53760        5.41790       -1.77880
C          7.52340        3.05920       -2.16690
C          7.16810        1.76500       -1.76250
C          6.50700        0.15260        1.77650
C          5.85920       -0.49360        2.83740
C          6.36900       -0.39950        4.14890
C          7.54500        0.31720        4.39250
F          8.04000        0.42170        5.64560
C          8.21690        0.92970        3.33710
C          7.71800        0.82440        2.03770
C          6.37370       -1.25450       -1.20190
C          5.44370       -2.15520       -1.73200
C          5.82030       -3.12850       -2.66650
C          7.16240       -3.22630       -3.06570
F          7.53950       -4.16630       -3.96790
C          8.11090       -2.37520       -2.49930
C          7.72250       -1.40120       -1.56890
H          3.68760        0.78680        2.73650
H          2.52610        2.76560        0.73650
H          2.84930        3.02170        2.56490
H          5.58370        2.60490        1.13580
H          6.22600        4.84040        0.42090
H          8.05570        3.20740       -3.09790
H          7.42550        0.95120       -2.41550
H          4.97470       -1.08490        2.67180
H          5.86280       -0.89880        4.96790
H          9.13100        1.48790        3.52080
H          8.28130        1.30070        1.24780
H          4.41850       -2.16430       -1.41140
H          5.09320       -3.80540       -3.09000
H          9.15200       -2.47380       -2.77340
H          8.47730       -0.76690       -1.12400
