75

P          1.01070       -0.00570        0.09930
C          0.01150        1.52290        0.31700
C          0.63790        2.80490        0.49240
C          2.12100        3.05770        0.52480
C         -0.13810        3.95990        0.58880
C         -1.51340        3.89840        0.44170
C         -2.14140        2.66520        0.22290
C         -1.38550        1.48880        0.16720
C          0.44660       -0.31970       -1.62410
C         -0.30910       -1.45920       -2.05020
C         -0.85180       -2.51350       -1.12680
C         -0.62330       -1.62080       -3.41000
C         -0.25880       -0.66610       -4.34590
C          0.39850        0.48770       -3.93520
C          0.73250        0.66230       -2.59090
C          0.56350       -1.02650        1.57460
C          1.00490       -2.39030        1.69990
C          1.97070       -3.07490        0.76940
C          0.49130       -3.20360        2.72690
C         -0.44630       -2.71200        3.62480
C         -0.87170       -1.39240        3.52650
C         -0.37200       -0.55710        2.52150
Pd         3.47070       -0.00570        0.09930
Br         3.47070        1.04700        2.46560
C          3.47070       -0.87960       -1.86510
C          3.34670       -0.24460       -3.02770
P          5.93070       -0.00570        0.09930
C          6.79450       -1.09880        1.34070
C          6.46800       -0.78900        2.81130
C          6.29020       -2.54390        1.09590
C          6.49800       -0.73400       -1.52450
C          6.31070        0.27980       -2.65940
C          7.97830       -1.15830       -1.57260
C          6.43450        1.55380        0.90130
H          2.70770        2.17060        0.24630
H          2.41190        3.45350        1.52360
H          2.40380        3.82550       -0.22580
H          0.32600        4.93320        0.72320
H         -2.10170        4.80880        0.47800
H         -3.21060        2.63300        0.07470
H         -1.88560        0.54960       -0.02810
H         -0.92390       -2.16720       -0.08990
H         -0.28190       -3.45730       -1.22730
H         -1.91030       -2.72070       -1.40580
H         -1.17240       -2.49230       -3.75000
H         -0.50910       -0.80230       -5.39440
H          0.66610        1.24240       -4.66600
H          1.25850        1.56080       -2.30130
H          2.34260       -2.41760       -0.02590
H          1.48370       -3.95560        0.29540
H          2.83940       -3.44870        1.35230
H          0.79970       -4.24150        2.81420
H         -0.85070       -3.36240        4.39120
H         -1.61550       -1.02130        4.21880
H         -0.77430        0.43940        2.47920
H          3.60570       -1.95530       -1.90480
H          3.24850        0.83250       -3.06750
H          3.36600       -0.80520       -3.95710
H          7.89480       -1.04320        1.21580
H          5.37750       -0.85450        2.99350
H          6.85600        0.19310        3.13340
H          6.95290       -1.54070        3.46980
H          5.18410       -2.58920        1.22330
H          6.74830       -3.26000        1.80850
H          6.50520       -2.92670        0.08240
H          5.89280       -1.64480       -1.70180
H          7.12200        1.03400       -2.67220
H          5.40470        0.88150       -2.53480
H          6.30100       -0.25490       -3.63690
H          8.64260       -0.28560       -1.40350
H          8.20480       -1.58930       -2.57320
H          8.23700       -1.94180       -0.83900
H          6.01900        1.74850        1.89780
H          6.10300        2.37540        0.23000
H          7.54520        1.59480        0.93010
