63

P          1.05800       -0.00970       -0.08090
C          0.05710       -0.80230       -1.58080
C         -1.49810       -0.74550       -1.55680
C          0.41890       -0.10580       -2.93080
C          0.41280       -2.29370       -1.77770
C          0.74660       -1.26330        1.42110
C          1.46980       -2.62370        1.24900
C          1.23720       -0.82800        2.83540
C         -0.76300       -1.49770        1.63450
C          0.37120        1.75130       -0.33740
C          0.39560        2.96230        0.68020
C          1.75510        3.66960        0.71830
C         -0.62300        4.03460        0.21700
C         -0.04600        2.52830        2.08560
Pd         3.51800       -0.00970       -0.08090
Br         3.51800        1.15700        2.23150
C          3.51800       -0.97820       -2.00040
C          3.79120       -2.24670       -2.31790
N          5.61800       -0.00970       -0.08090
C          6.19170       -1.29400       -0.55580
C          5.96110        0.89610       -1.19400
C          6.27610        0.47930        1.15240
H         -1.90690        0.27050       -1.56780
H         -1.97440       -1.30880       -0.75550
H         -1.88930       -1.24550       -2.47600
H          0.17120        0.97130       -2.95800
H         -0.15180       -0.55240       -3.77670
H          1.44330       -0.23390       -3.25130
H         -0.16100       -2.94630       -1.09910
H          1.48060       -2.48780       -1.63510
H          0.15840       -2.66940       -2.79370
H          2.55670       -2.46020        1.11250
H          1.11380       -3.26660        0.45060
H          1.32630       -3.26240        2.15020
H          2.32510       -0.89530        2.94080
H          0.92400       -1.56490        3.60700
H          0.80390        0.09070        3.23110
H         -1.17280       -2.15910        0.86870
H         -1.31110       -0.52750        1.70060
H         -0.97780       -2.05930        2.57070
H         -0.70930        1.56510       -0.43770
H          0.74700        2.14820       -1.30240
H          1.96770        4.18150       -0.24300
H          2.57950        2.98360        0.84150
H          1.78490        4.42620        1.53570
H         -0.35190        4.43780       -0.78260
H         -0.63470        4.89390        0.93060
H         -1.65480        3.63240        0.16700
H          0.75070        1.94020        2.52150
H         -1.01380        1.97940        2.05480
H         -0.16760        3.40420        2.75630
H          3.41070       -0.28760       -2.82160
H          4.00810       -2.99780       -1.56700
H          3.82160       -2.51990       -3.36860
H          6.03290       -1.52640       -1.62220
H          5.78940       -2.12300        0.06340
H          7.30120       -1.31010       -0.43200
H          5.53320        0.59110       -2.16790
H          7.07640        0.98220       -1.33340
H          5.58020        1.91510       -0.99370
H          6.01110       -0.18290        1.99680
H          6.00540        1.52070        1.36320
H          7.39280        0.44770        1.04230
