52

P          1.08200       -0.05510        0.01550
C          0.45820        0.92660       -1.38990
C         -0.86870        1.03460       -1.84640
C         -1.15190        1.74290       -3.02870
C         -0.12480        2.33600       -3.76980
F         -0.39810        3.00200       -4.91900
C          1.19060        2.21350       -3.34230
C          1.46410        1.51330       -2.17640
C          0.62340       -1.69710       -0.57250
C          1.05810       -2.16360       -1.83470
C          0.87590       -3.50700       -2.17600
C          0.23680       -4.37830       -1.28770
F          0.10690       -5.69250       -1.60240
C         -0.24670       -3.90380       -0.06430
C         -0.05680       -2.56820        0.29660
C          0.24470        0.67490        1.44540
C         -1.16100        0.62650        1.49610
C         -1.85220        0.98890        2.64720
C         -1.14750        1.38670        3.78020
F         -1.82600        1.68400        4.91910
C          0.25270        1.43370        3.74940
C          0.95170        1.07900        2.58240
Pd         3.54200       -0.05510        0.01550
Br         3.54200        2.52800        0.20380
C          3.54200       -2.19940       -0.14080
C          4.48170       -3.15640        0.01080
N          5.64200       -0.05510        0.01550
C          6.38120        0.94190        0.62010
F          5.81720        1.87430        1.41270
C          7.77950        0.95360        0.56810
C          8.45250       -0.02010       -0.15170
C          7.72100       -0.99410       -0.80940
C          6.32830       -0.99520       -0.70790
H         -1.68950        0.55560       -1.35390
H         -2.16910        1.81310       -3.38820
H          2.00090        2.64210       -3.92270
H          2.51000        1.38810       -1.91720
H          1.60490       -1.51350       -2.50180
H          1.26920       -3.88330       -3.11140
H         -0.73270       -4.58190        0.62350
H         -0.38280       -2.22810        1.27030
H         -1.74210        0.25120        0.68000
H         -2.93500        0.91640        2.66740
H          0.78810        1.70300        4.64840
H          2.03180        1.06400        2.59750
H          2.63810       -2.71820       -0.20420
H          5.52420       -3.03110        0.23760
H          4.18340       -4.20240       -0.06190
H          8.33830        1.71800        1.09350
H          9.53300       -0.00930       -0.21260
H          8.22520       -1.73370       -1.41810
H          5.81410       -1.69710       -1.33470
