96

P          1.06140       -0.06730       -0.04130
C         -0.03320       -0.98440       -1.25100
C         -1.23940       -0.48350       -1.81030
C         -1.81390       -1.09590       -2.94480
C         -1.17830       -2.17000       -3.57360
F         -1.67010       -2.67180       -4.73410
C         -0.03280       -2.70920       -3.00980
C          0.49880       -2.15170       -1.84980
C          0.76540       -1.08550        1.42980
C          1.19190       -2.42360        1.45460
C          0.89890       -3.24560        2.54660
C          0.18300       -2.73930        3.63230
F         -0.11300       -3.54170        4.68460
C         -0.22700       -1.40480        3.63220
C          0.06540       -0.57970        2.54040
C          0.36540        1.58750       -0.29830
C         -0.87470        1.93370        0.27550
C         -1.53550        3.10510       -0.10190
C         -0.97040        3.94730       -1.05850
F         -1.63350        5.06280       -1.45250
C          0.26110        3.61890       -1.63450
C          0.92350        2.44020       -1.26350
Pd         3.52140       -0.06730       -0.04130
Br         3.52140        1.41860        2.08000
C          3.52140       -1.30080       -1.80230
C          2.70600       -0.97430       -2.80530
P          5.98140       -0.06730       -0.04130
C          6.70790        0.12020        1.72350
C          6.31310       -1.03920        2.70450
C          7.12090       -2.32620        2.48950
C          8.64230       -2.04390        2.53990
C          9.05480       -0.86440        1.64670
C          8.21430        0.37710        1.93590
C          6.51210       -1.65480       -1.15870
C          6.32950       -1.65200       -2.74940
C          7.52410       -1.45250       -3.67820
C          8.66670       -2.40580       -3.32200
C          9.01540       -2.39220       -1.82970
C          7.75300       -2.63910       -0.97410
C          6.61860        1.77030       -0.48250
C          5.91560        3.04340       -0.34790
C          4.60870        3.27640        0.25090
C          6.45320        4.27150       -0.79160
C          7.66970        4.37060       -1.41190
C          8.17710        5.68810       -1.91910
C          8.39540        3.22460       -1.57240
C          7.93040        1.94940       -1.11330
C          8.88230        0.89580       -1.39420
H         -1.73360        0.36890       -1.42560
H         -2.71390       -0.69150       -3.37120
H          0.48550       -3.51880       -3.51800
H          1.40680       -2.59780       -1.50140
H          1.73850       -2.84670        0.62880
H          1.21860       -4.27980        2.54420
H         -0.78090       -1.01080        4.47500
H         -0.26910        0.44260        2.57670
H         -1.38280        1.27200        0.95720
H         -2.50610        3.33710        0.32040
H          0.68330        4.26250       -2.39530
H          1.84620        2.17540       -1.76140
H          4.21230       -1.98820       -2.11560
H          2.04690       -0.12160       -2.72710
H          2.78470       -1.48580       -3.76250
H          6.21270        1.02480        2.12040
H          5.22750       -1.26520        2.66230
H          6.53960       -0.71300        3.74480
H          6.76890       -2.76290        1.55090
H          6.88580       -3.08800        3.26410
H          9.21900       -2.95220        2.24880
H          8.92640       -1.78600        3.58140
H          8.91860       -1.11420        0.60850
H         10.13440       -0.64160        1.78540
H          8.54340        1.26180        1.36820
H          8.38680        0.63960        3.00400
H          5.74210       -2.31570       -0.70430
H          5.57980       -0.93570       -3.12960
H          6.01150       -2.70080       -2.99660
H          7.81400       -0.39550       -3.71800
H          7.19830       -1.68290       -4.71890
H          9.55810       -2.16700       -3.94030
H          8.34310       -3.43950       -3.57270
H          9.55940       -1.49270       -1.53470
H          9.74590       -3.21010       -1.64840
H          8.06350       -2.87610        0.03650
H          7.40360       -3.64250       -1.31710
H          3.88380        2.57200       -0.19080
H          4.16090        4.28260        0.09820
H          4.84580        3.33910        1.33330
H          5.91110        5.20000       -0.65830
H          7.46250        6.50690       -1.69650
H          8.28790        5.61830       -3.02200
H          9.14820        5.92090       -1.44950
H          9.34650        3.31030       -2.07290
H          9.71970        1.16920       -2.07390
H          8.30310        0.12060       -1.85390
H          9.38120        0.56710       -0.48920
