43

P          0.93340        0.04100        0.06240
C          0.12260        0.47240        1.69220
C         -1.40060        0.41560        1.82480
C          0.73710       -0.45500        2.75890
C          0.59350        1.40370       -1.14360
C          1.16170        0.99510       -2.50320
C         -0.90590        1.67280       -1.32550
C          0.22770       -1.61820       -0.22960
Pd         3.39340        0.04100        0.06240
Br         3.39340        2.53620        0.75680
C          3.39340       -2.03030       -0.51410
C          2.98900       -3.02530        0.27090
O          5.44340        0.04100        0.06240
C          5.93070       -0.05170       -1.24020
C          5.47270        1.20850       -1.99190
C          7.45470       -0.04270       -1.16750
H          0.46640        1.49770        1.94040
H         -1.80040       -0.59420        1.61470
H         -1.93060        1.15560        1.21940
H         -1.66760        0.67360        2.87620
H          0.41730       -1.50460        2.62580
H          0.42830       -0.14240        3.77790
H          1.84920       -0.42420        2.72230
H          1.07490        2.34470       -0.81600
H          0.66990        0.06850       -2.87530
H          2.24630        0.81140       -2.43260
H          0.99110        1.80460       -3.24760
H         -1.46160        0.73690       -1.55990
H         -1.07820        2.39320       -2.15350
H         -1.32680        2.17200       -0.44030
H         -0.87750       -1.52320       -0.28720
H          0.46400       -2.34140        0.56620
H          0.57140       -2.00080       -1.21150
H          3.74140       -2.27150       -1.51220
H          2.62180       -2.83470        1.27080
H          3.00980       -4.04400       -0.10890
H          5.58490       -0.96700       -1.75180
H          5.81540        2.12840       -1.46170
H          4.37150        1.24720       -2.04450
H          5.87660        1.22960       -3.02430
H          7.81950        0.86980       -0.63540
H          7.89640       -0.03370       -2.19140
H          7.82130       -0.93870       -0.62410
