85

P          0.95710       -0.06410       -0.06360
C          0.40710       -1.48210        0.96370
C         -0.91070       -1.86600        1.33380
C         -2.13380       -1.14170        0.86790
C         -1.08870       -2.96140        2.21180
C          0.00350       -3.69040        2.68710
C          1.28690       -3.35700        2.27960
C          1.47850       -2.27500        1.42580
C          0.62260        1.25210        1.23320
C          1.08190        2.59940        1.03840
C          1.95490        3.05180       -0.08970
C          0.70710        3.61360        1.94550
C         -0.08750        3.33930        3.04580
C         -0.51230        2.04260        3.28000
C         -0.14990        1.01400        2.40180
C          0.19100       -0.13120       -1.73420
C         -0.23460       -1.28470       -2.48280
C         -0.15500       -2.72360       -2.02960
C         -0.72590       -1.10350       -3.79230
C         -0.84190        0.16520       -4.35450
C         -0.48150        1.28240       -3.61830
C          0.02680        1.13270       -2.33340
Pd         3.41710       -0.06410       -0.06360
Br         3.41710        0.13850        2.51840
C          3.41710       -0.23230       -2.20700
C          2.75450       -1.03230       -3.01810
P          5.87710       -0.06410       -0.06360
N          6.94090       -1.22040       -0.97850
C          6.41480       -1.50860       -2.32000
C          8.41210       -1.38180       -0.94080
C          9.03290       -1.07300        0.38600
N          8.65690        0.25710        0.88690
C          8.63700        1.53320        0.13150
C          7.78230        1.58530       -1.18500
N          6.31830        1.29790       -1.12410
C          5.59190        2.47910       -0.66900
N          6.15830       -0.44060        1.66470
C          5.88130       -1.81620        2.10440
C          6.93010        0.46770        2.52990
C          8.42060        0.30970        2.32160
H         -1.88690       -0.30500        0.18660
H         -2.68100       -0.73840        1.74590
H         -2.79020       -1.85790        0.33090
H         -2.07970       -3.24920        2.53770
H         -0.14160       -4.52210        3.36680
H          2.13860       -3.92890        2.63030
H          2.49590       -2.04930        1.13240
H          2.25710        2.22790       -0.76340
H          2.87530        3.50200        0.33660
H          1.43420        3.83520       -0.68580
H          1.03930        4.63600        1.79420
H         -0.38070        4.13310        3.72270
H         -1.13080        1.82460        4.13610
H         -0.54470        0.07280        2.68210
H          0.25410       -2.86420       -1.02660
H          0.50030       -3.30320       -2.71710
H         -1.16400       -3.18100       -2.07110
H         -1.01250       -1.95760       -4.39390
H         -1.21760        0.28370       -5.36310
H         -0.58500        2.27190       -4.04560
H          0.29260        2.03130       -1.80950
H          4.18920        0.36340       -2.68170
H          2.11350       -1.77500       -2.62570
H          2.95550       -0.99630       -4.08710
H          5.37680       -1.88000       -2.24670
H          6.98190       -2.32800       -2.81360
H          6.46960       -0.60920       -2.96990
H          8.93780       -0.85840       -1.75000
H          8.64170       -2.45340       -1.15080
H         10.13230       -1.20150        0.35670
H          8.64320       -1.86220        1.06330
H          9.68140        1.81660       -0.10790
H          8.23850        2.33980        0.78520
H          8.22220        0.98280       -1.99330
H          7.93690        2.59610       -1.61660
H          5.82750        3.35440       -1.31310
H          5.83140        2.73290        0.38770
H          4.50800        2.29760       -0.77290
H          4.99600       -2.21510        1.56570
H          5.63070       -1.82170        3.18760
H          6.73570       -2.49260        1.93390
H          6.64230        1.50660        2.29370
H          6.69940        0.29450        3.60580
H          8.76770       -0.63330        2.82840
H          8.99570        1.12850        2.81050
