61

P          1.00980        0.07220       -0.06850
C          0.12360        1.45580        0.69420
C         -0.44120        1.36270        1.97750
C         -0.86340        2.52470        2.64660
C         -0.72010        3.78160        2.04500
Cl        -1.18670        5.24170        2.90240
C         -0.16060        3.88190        0.77180
C          0.27050        2.73150        0.11060
C          0.76060        0.39330       -1.82380
C          1.85920        0.57110       -2.68220
C          1.64730        0.79910       -4.06190
C          0.35280        0.84980       -4.57670
Cl         0.08920        1.11110       -6.29270
C         -0.74380        0.69610       -3.72890
C         -0.54400        0.46790       -2.36300
C          0.34250       -1.53950        0.41700
C         -1.02140       -1.81810        0.21360
C         -1.55790       -3.05980        0.55610
C         -0.74410       -4.03980        1.12230
Cl        -1.42580       -5.60120        1.54990
C          0.60960       -3.76830        1.35340
C          1.15010       -2.52160        1.00490
Pd         3.46980        0.07220       -0.06850
Br         3.46980       -2.16080       -1.38060
C          3.46980        1.92590        1.02080
C          3.16390        1.98370        2.31470
P          5.92980        0.07220       -0.06850
C          7.18930       -1.19960        0.31750
C          6.26440       -0.30020       -1.83170
C          6.40520        1.38090        1.07080
C          6.10450        1.21700        2.43220
C          6.44200        2.20870        3.35710
C          7.09580        3.36460        2.92930
C          7.41810        3.52580        1.57660
C          7.07470        2.53530        0.64410
H         -0.49560        0.41230        2.48920
H         -1.26130        2.45900        3.65080
H         -0.01340        4.85190        0.31250
H          0.76490        2.85280       -0.84380
H          2.86320        0.53600       -2.31810
H          2.50330        0.93010       -4.71750
H         -1.75280        0.72570       -4.12850
H         -1.41470        0.36850       -1.73200
H         -1.68470       -1.08380       -0.20890
H         -2.61030       -3.25470        0.38180
H          1.24030       -4.52180        1.80660
H          2.19880       -2.32980        1.19470
H          3.79050        2.82610        0.50670
H          2.92640        1.07910        2.86170
H          3.21950        2.93330        2.83930
H          6.98250       -2.16380       -0.19460
H          7.08350       -1.41810        1.40610
H          8.22280       -0.84830        0.14300
H          5.92680       -1.30110       -2.14870
H          7.36270       -0.23500       -2.01950
H          5.80090        0.48380       -2.46120
H          5.59770        0.32500        2.77770
H          6.19060        2.07890        4.40260
H          7.35310        4.13220        3.64800
H          7.93240        4.42120        1.25370
H          7.32630        2.67050       -0.39890
