100

P          1.03310        0.06450        0.06880
C         -0.07000       -1.04420       -0.91310
C         -1.12300       -1.80500       -0.38390
C         -1.71800       -2.81770       -1.13190
C         -1.27260       -3.12160       -2.43060
O         -1.78530       -4.15350       -3.14840
C         -2.80090       -4.97910       -2.71090
C         -0.26730       -2.33540       -2.98760
C          0.29490       -1.29050       -2.24870
C          0.47420       -0.54220        1.69560
C          0.78860       -1.85270        2.07060
C          0.19970       -2.45010        3.18420
C         -0.75330       -1.74770        3.94500
O         -1.42190       -2.33770        4.96800
C         -1.35640       -3.68380        5.29500
C         -1.05270       -0.42070        3.59410
C         -0.44540        0.18640        2.47790
C          0.34600        1.56010       -0.71520
C         -1.05090        1.74670       -0.65520
C         -1.68510        2.73810       -1.40270
C         -0.93690        3.57980       -2.23910
O         -1.52880        4.49020       -3.06320
C         -2.88590        4.56600       -3.33800
C          0.46360        3.43900       -2.26080
C          1.10520        2.43120       -1.50890
Pd         3.49310        0.06450        0.06880
Br         3.49310        2.07550        1.70110
C          3.49310       -1.60480       -1.28610
C          2.63220       -2.63110       -1.31860
C          5.64310        0.06450        0.06880
N          6.27810       -0.04700       -1.24440
C          6.05210       -0.18690       -2.85470
C          7.11570        0.22640       -3.80110
C          8.19360        1.22910       -3.48590
C          7.17080       -0.14110       -5.19820
C          6.17660       -0.88510       -5.79880
C          6.08360       -1.43560       -7.21110
C          5.07790       -1.05950       -5.08280
C          4.89260       -0.64860       -3.75620
C          3.42060       -0.82430       -3.62490
C          7.59180       -0.04140       -0.85870
C          7.72810        0.08550        0.51820
N          6.52950        0.15440        1.14150
C          6.27500        0.10000        2.65200
C          7.20040        0.40170        3.74660
C          8.67640        0.71210        3.68900
C          6.73790        0.37840        5.10510
C          5.41900        0.07290        5.43480
C          4.84740        0.08050        6.82070
C          4.58730       -0.33350        4.44820
C          5.01400       -0.39690        3.13690
C          4.04630       -1.05560        2.30100
H         -1.48120       -1.66020        0.61910
H         -2.50940       -3.38280       -0.66770
H         -3.03220       -5.73220       -3.48980
H         -3.70840       -4.36870       -2.52120
H         -2.50200       -5.51040       -1.77950
H          0.11500       -2.56130       -3.97580
H          1.09420       -0.74170       -2.68260
H          1.46740       -2.44110        1.47040
H          0.45760       -3.46920        3.41470
H         -2.05700       -3.90980        6.12520
H         -0.32790       -3.95360        5.61250
H         -1.65260       -4.30700        4.42090
H         -1.80220        0.12510        4.16320
H         -0.75080        1.18440        2.19790
H         -1.67180        1.08460       -0.06640
H         -2.76400        2.81410       -1.35240
H         -3.06860        5.34150       -4.11150
H         -3.46460        4.82960       -2.42830
H         -3.24990        3.59540       -3.74440
H          1.04960        4.08130       -2.90650
H          2.17460        2.29620       -1.59580
H          4.45300       -1.86520       -1.70330
H          1.73980       -2.69330       -0.73500
H          2.88720       -3.51080       -1.90770
H          8.05900        1.73720       -2.51630
H          8.08030        2.06900       -4.21740
H          9.20110        0.79170       -3.61990
H          7.98970        0.16650       -5.83800
H          6.95280       -1.23210       -7.85210
H          5.15800       -1.04650       -7.70750
H          5.92600       -2.54310       -7.14200
H          4.27660       -1.55380       -5.64930
H          2.73730       -0.79310       -4.50370
H          3.04200        0.00690       -3.00460
H          3.28990       -1.93700       -3.57020
H          8.44510       -0.16990       -1.49470
H          8.69790        0.04700        0.95250
H          9.15770        0.76900        2.72290
H          9.20740       -0.09470        4.25190
H          8.88780        1.67010        4.20150
H          7.41050        0.61410        5.92060
H          5.61170        0.28620        7.59000
H          4.38370       -0.91220        7.01940
H          4.03660        0.84360        6.88350
H          3.57380       -0.63600        4.70830
H          2.99790       -0.99160        2.60810
H          4.40140       -1.94410        1.74160
H          4.03200       -0.27220        1.74510
