64

P          1.04680        0.07590       -0.04540
C         -0.03880       -0.06860        1.43200
C         -1.26080       -0.75920        1.48830
C         -1.92270       -0.92130        2.72100
C         -1.35870       -0.43520        3.91150
C         -0.16100        0.26140        3.86340
C          0.46770        0.47580        2.63880
C          0.65930        1.81760       -0.36050
C          1.66390        2.77890       -0.52170
C          1.31670        4.12090       -0.74850
C         -0.02540        4.50690       -0.80190
C         -1.03020        3.55570       -0.63700
C         -0.69230        2.21850       -0.42190
C          0.52680       -1.18370       -1.27440
C          1.10940       -2.48960       -1.37400
C          2.27660       -2.91540       -0.56670
C          0.58150       -3.43760       -2.26000
C         -0.49840       -3.12470       -3.07290
C         -1.06150       -1.84670       -3.01450
C         -0.55640       -0.89670       -2.12200
Pd         3.50680        0.07590       -0.04540
Br         3.50680        0.30130       -2.62550
C          3.50680       -0.11130        2.09650
C          2.85350       -1.11780        2.68500
N          5.60680        0.07590       -0.04540
C          6.15860        0.37830       -1.36980
C          6.03230        1.12440        0.89970
C          6.29420       -1.10650        0.47960
C          5.60530       -2.27320        0.85000
C          6.29580       -3.44130        1.21410
C          7.68860       -3.47380        1.21670
C          8.40400       -2.33790        0.86760
C          7.72600       -1.17690        0.50500
H         -1.69640       -1.17150        0.59270
H         -2.86480       -1.44620        2.77350
H         -1.84010       -0.60270        4.86600
H          0.29450        0.63100        4.78180
H          1.39070        1.02900        2.65620
H          2.70430        2.49630       -0.47710
H          2.08970        4.86360       -0.88020
H         -0.29070        5.54320       -0.97330
H         -2.07300        3.85120       -0.67430
H         -1.49530        1.50340       -0.29100
H          2.67530       -2.07040       -0.01830
H          3.07990       -3.28880       -1.24440
H          1.99540       -3.73650        0.13070
H          1.01770       -4.42960       -2.33160
H         -0.89060       -3.86450       -3.76490
H         -1.90520       -1.61520       -3.65840
H         -1.04310        0.06310       -2.09090
H          4.12800        0.44710        2.77080
H          2.27330       -1.82770        2.11420
H          2.93380       -1.26750        3.75720
H          5.75920        1.34570       -1.74120
H          5.95880       -0.45450       -2.07620
H          7.25600        0.52550       -1.38340
H          5.52730        2.08000        0.63940
H          7.12100        1.34220        0.85100
H          5.87180        0.89930        1.95600
H          4.54540       -2.30690        0.83830
H          5.74720       -4.33650        1.47610
H          8.22270       -4.38010        1.47920
H          9.48740       -2.35390        0.85740
H          8.35340       -0.34450        0.22020
