64

P          0.97740       -0.08220       -0.05230
C         -0.09120       -1.08380       -1.29820
C         -1.62160       -1.04000       -1.10630
C          0.25120       -0.71010       -2.77820
C          0.28550       -2.58220       -1.15730
C          0.47720       -0.89820        1.47970
C          1.19380       -1.98180        2.01980
C          0.69480       -2.67230        3.12740
C         -0.52030       -2.29140        3.70720
C         -1.24030       -1.21820        3.17540
C         -0.74280       -0.52690        2.06990
C          0.33180        1.66820       -0.08810
C         -0.55110        2.13430       -1.10730
C         -1.05460        3.43730       -1.12820
C         -0.70920        4.33840       -0.12770
C          0.11320        3.91860        0.90560
C          0.61280        2.60950        0.93130
Pd         3.43740       -0.08220       -0.05230
Br         3.43740        1.38560        2.08170
C          3.43740       -1.30060       -1.82370
C          3.74870       -2.59380       -1.83750
C          5.58740       -0.08220       -0.05230
N          6.27410       -1.11290        0.56860
C          5.77840       -2.29810        1.30340
C          6.91950       -3.16810        1.89010
C          7.59300       -0.84170        0.43810
C          7.73230        0.30600       -0.20970
N          6.52720        0.83490       -0.53050
C          6.68110        2.11890       -1.25200
C          5.47760        2.84190       -1.78100
H         -2.08620       -0.05370       -1.22870
H         -1.91370       -1.45280       -0.12330
H         -2.09470       -1.69970       -1.87320
H          0.18860        0.34540       -3.06700
H         -0.38390       -1.27550       -3.49250
H          1.26370       -0.99410       -3.05580
H         -0.03540       -3.00370       -0.18560
H          1.36570       -2.74140       -1.22350
H         -0.17410       -3.20000       -1.96040
H          2.11940       -2.30710        1.55420
H          1.23340       -3.51730        3.53200
H         -0.92100       -2.83590        4.55240
H         -2.19100       -0.93200        3.60820
H         -1.33250        0.28010        1.65360
H         -0.90170        1.53510       -1.90560
H         -1.73040        3.74350       -1.92060
H         -1.09650        5.34900       -0.15430
H          0.38170        4.61540        1.69750
H          1.18480        2.34980        1.77260
H          3.28050       -0.79570       -2.76600
H          3.91590       -3.12980       -0.92570
H          3.78750       -3.14050       -2.77260
H          5.21860       -2.95070        0.63340
H          5.12760       -1.96970        2.13440
H          7.58350       -3.54640        1.07750
H          6.51660       -4.05110        2.42110
H          7.52860       -2.58110        2.61350
H          8.41950       -1.43450        0.80400
H          8.70010        0.76010       -0.43730
H          7.33410        1.92310       -2.14380
H          7.24550        2.82390       -0.59940
H          4.95660        2.23370       -2.54250
H          5.87820        3.75580       -2.29190
H          4.82350        3.16890       -0.95500
