64

P          0.95450       -0.08800       -0.01370
C          0.68230       -1.02470       -1.55120
C          0.52310       -0.40240       -2.80380
C          0.25730       -1.17000       -3.94490
C          0.16840       -2.56080       -3.85640
C          0.34350       -3.18820       -2.62630
C          0.59220       -2.42690       -1.48510
C          0.49340       -0.90780        1.55860
C          1.07520       -0.56720        2.79040
C          0.63690       -1.18450        3.97830
C         -0.38970       -2.13190        3.94800
C         -0.97010       -2.48640        2.73220
C         -0.52640       -1.89150        1.54760
C         -0.44300        1.23440       -0.19050
C         -1.89060        0.73230       -0.17210
C         -2.47920        0.66350        1.25810
C         -2.46670        2.02720        1.94650
C         -1.03080        2.55140        2.03260
C         -0.42290        2.58930        0.61450
Pd         3.41450       -0.08800       -0.01370
Br         3.41450       -2.66420        0.25290
C          3.41450        2.05060       -0.23510
C          2.91840        2.83730        0.71330
N          5.51450       -0.08800       -0.01370
C          6.29430        1.05840        0.34790
C          5.82840        2.39940        0.86620
C          7.70730        1.02570        0.44560
C          8.42360       -0.09380        0.18900
C          7.74520       -1.20460       -0.17790
C          6.33590       -1.22050       -0.29680
C          5.94000       -2.52420       -0.93960
H          0.58150        0.66840       -2.91860
H          0.11490       -0.68370       -4.90010
H         -0.03730       -3.15250       -4.73950
H          0.28260       -4.26760       -2.55230
H          0.71600       -2.95050       -0.55150
H          1.85820        0.17380        2.83640
H          1.08010       -0.91720        4.92580
H         -0.74400       -2.58710        4.86700
H         -1.78130       -3.20870        2.71020
H         -1.03230       -2.16520        0.63290
H         -0.23310        1.61810       -1.20440
H         -1.95740       -0.22110       -0.72350
H         -2.50940        1.48140       -0.72160
H         -1.91530        0.00520        1.91620
H         -3.51750        0.28580        1.20400
H         -2.89180        1.94460        2.97050
H         -3.10230        2.73570        1.36950
H         -0.41170        1.92610        2.70430
H         -1.06490        3.58350        2.46150
H          0.54720        3.09000        0.65180
H         -1.05590        3.32070        0.06780
H          3.80730        2.47740       -1.15310
H          2.51770        2.39730        1.62010
H          2.90870        3.91450        0.58110
H          5.11800        2.24420        1.70060
H          5.55360        3.07820        0.03780
H          6.61640        3.01310        1.35390
H          8.29800        1.88800        0.73480
H          9.50030       -0.09870        0.26540
H          8.35060       -2.07550       -0.40170
H          6.71730       -2.88730       -1.64690
H          5.09710       -2.39470       -1.64810
H          5.90720       -3.34130       -0.17870
