65

P          1.01380        0.03320       -0.09330
C          0.16050       -1.42440        0.83930
C         -1.37260       -1.34850        0.96920
C          0.55080       -2.78090        0.21940
C          0.67730       -1.49520        2.30660
C          0.45350        1.43280        0.97660
C          0.83030        1.61400        2.33060
C          0.33250        2.66740        3.09590
C         -0.58200        3.55390        2.54100
C         -0.97460        3.39960        1.21150
C         -0.45200        2.35920        0.43430
C          0.27940       -0.18910       -1.75800
C         -1.11560       -0.00690       -1.94800
C         -1.70010       -0.10800       -3.21290
C         -0.90280       -0.36650       -4.32220
C          0.47890       -0.48790       -4.16600
C          1.06370       -0.38360       -2.89780
Pd         3.47380        0.03320       -0.09330
Br         3.55640       -2.06070       -1.43860
C          3.39610        1.73640        1.09240
C          3.46690        3.02160        0.71210
P          5.93380        0.03320       -0.09330
C          7.10940       -1.18630       -0.78060
C          6.25960        1.40880       -1.23680
C          6.68300        0.41490        1.61740
C          6.25100       -0.66930        2.63580
C          8.22610        0.39760        1.54900
C          6.31660        1.79120        2.19150
H         -1.90110       -1.44190        0.01540
H         -1.67450       -0.42770        1.51520
H         -1.74100       -2.21520        1.56290
H          0.22270       -2.87150       -0.83310
H          0.09200       -3.61770        0.79620
H          1.64390       -2.94450        0.29220
H          0.26880       -0.68720        2.93000
H          1.78880       -1.51210        2.36210
H          0.29550       -2.39240        2.83880
H          1.51380        0.95340        2.83190
H          0.64960        2.78390        4.12600
H         -0.98740        4.35560        3.14390
H         -1.69150        4.08460        0.78210
H         -0.77840        2.27410       -0.58860
H         -1.77570        0.25750       -1.13700
H         -2.76970        0.03100       -3.33520
H         -1.35270       -0.44230       -5.30400
H          1.10240       -0.64780       -5.03320
H          2.12780       -0.42930       -2.82380
H          3.31770        1.54900        2.14180
H          3.55500        3.36300       -0.31420
H          3.42070        3.79110        1.48470
H          6.78510       -1.44110       -1.81110
H          7.01660       -2.11800       -0.17660
H          8.15970       -0.85500       -0.82240
H          5.88970        1.15580       -2.24980
H          7.35800        1.57560       -1.29050
H          5.78240        2.33880       -0.87560
H          6.67580       -1.66530        2.38570
H          5.14480       -0.76130        2.68240
H          6.60760       -0.41100        3.65970
H          8.61490       -0.60470        1.28130
H          8.67120        0.61940        2.54350
H          8.59490        1.14900        0.82120
H          5.29420        1.84980        2.52490
H          6.56250        2.60750        1.48350
H          6.86000        1.97330        3.14380
