73

P          1.05730        0.02760        0.07720
C          0.59310        0.97370       -1.54660
C          1.37620        2.34710       -1.57460
C          2.71820        2.33240       -2.33060
C          2.46620        2.07340       -3.82390
C          1.69100        0.78020       -4.07510
C          0.51610        0.55630       -3.08490
C          0.40780       -1.66170       -0.55400
C          0.44870       -2.69220        0.61160
C         -0.73500       -2.48090        1.60450
C         -2.07370       -2.72270        0.93500
C         -2.23050       -1.73570       -0.21540
C         -1.04400       -1.82230       -1.17400
C          0.35030        1.11140        1.54960
C         -0.31740        2.43420        1.44610
C         -0.72110        3.31390        0.26660
C         -0.73540        3.12670        2.60560
C         -0.63380        2.61500        3.87310
C         -1.14720        3.38510        5.05750
C         -0.06640        1.36930        4.02460
C          0.43610        0.62830        2.93230
C          1.05330       -0.65910        3.40920
Pd         3.51730        0.02760        0.07720
Br         3.51730       -1.01290       -2.29470
C          3.51730        0.89130        2.04600
C          4.44890        0.68420        2.98490
N          5.61730        0.02760        0.07720
C          6.33510        1.00680        0.72990
F          5.72960        2.09190        1.27220
C          7.73100        1.03000        0.71240
C          8.42950        0.03790        0.04640
F          9.78600        0.03800        0.03800
C          7.72590       -0.94990       -0.61580
C          6.32770       -0.92790       -0.62000
F          5.72810       -1.98780       -1.19680
H         -0.48470        1.04310       -1.32270
H          1.58670        2.72070       -0.55410
H          0.77360        3.10850       -2.11740
H          3.42190        1.62110       -1.86990
H          3.18810        3.33900       -2.25280
H          3.42240        2.06360       -4.39520
H          1.85670        2.91710       -4.21310
H          2.35220       -0.06620       -4.15690
H          1.30880        0.78280       -5.11810
H          0.10620       -0.43800       -3.29360
H         -0.22900        1.28090       -3.48860
H          1.11830       -1.96880       -1.34370
H          1.43290       -2.65950        1.09930
H          0.34920       -3.72760        0.21150
H         -0.78520       -1.44350        1.95850
H         -0.63570       -3.16420        2.47490
H         -2.90600       -2.58160        1.65810
H         -2.11850       -3.77850        0.57100
H         -2.30300       -0.70100        0.17560
H         -3.17560       -1.97170       -0.75900
H         -1.26690       -1.15530       -2.00600
H         -1.07580       -2.86160       -1.60300
H         -0.82170        2.90010       -0.71820
H         -0.10670        4.23490        0.24840
H         -1.78270        3.62680        0.39240
H         -1.19770        4.11050        2.52590
H         -1.55080        4.37800        4.76330
H         -0.33050        3.55250        5.79010
H         -1.96810        2.81950        5.54560
H          0.00030        0.97490        5.03370
H          1.82890       -0.45550        4.17670
H          1.53920       -1.21980        2.60890
H          0.27470       -1.27780        3.90920
H          2.68020        1.48050        2.35710
H          5.30570        0.04730        2.81070
H          4.34210        1.14170        3.96340
H          8.26990        1.84080        1.19050
H          8.25680       -1.74950       -1.11910
