43

P          1.27500        0.00000        0.00000
N          0.21830        1.32270       -0.55280
C         -1.20890        1.10770       -0.40930
C         -1.46760       -0.28050        0.14070
C         -2.99030       -0.48030        0.24270
C         -0.83380       -1.32460       -0.86260
N          0.62450       -1.16360       -1.13360
N          0.64790        0.02380        1.62870
C         -0.79220       -0.36570        1.57080
Pd         3.73500        0.00030       -0.00050
Br         3.73550       -2.34380        1.10100
C          3.73460        1.94620       -0.91480
C          3.22330        3.01190       -0.30430
N          5.83500        0.00060       -0.00090
C          6.52040        1.09040       -0.49300
C          7.90810        1.14200       -0.55530
C          8.66010        0.04010       -0.16260
O         10.01750        0.01170       -0.25890
C         10.80640        1.06330       -0.68150
C          7.99110       -1.07240        0.32890
C          6.59050       -1.06430        0.43610
H          0.45700        1.54330       -1.54830
H         -1.70870        1.24870       -1.39690
H         -1.61100        1.88960        0.27180
H         -3.46250       -0.36730       -0.75970
H         -3.43900        0.29230        0.90620
H         -3.23640       -1.48300        0.64120
H         -1.37680       -1.26620       -1.83510
H         -1.00990       -2.34570       -0.46420
H          0.78680       -0.80180       -2.09980
H          0.74660        1.00460        1.98150
H         -1.35190        0.29100        2.27520
H         -0.90150       -1.40180        1.94550
H          4.13980        2.05030       -1.91720
H          2.79380        2.92670        0.68630
H          3.22730        3.97390       -0.80910
H          6.05180        1.99060       -0.81660
H          8.37610        2.04480       -0.92520
H         11.86780        0.74180       -0.69880
H         10.70410        1.91830        0.02080
H         10.52070        1.38340       -1.70710
H          8.54750       -1.95490        0.61960
H          6.17340       -1.97080        0.80040
