39

P          1.27500        0.00000        0.00000
N          0.26880        1.43180       -0.33160
C         -1.16750        1.23190       -0.30500
C         -1.47500       -0.21030        0.04150
C         -3.00490       -0.37820        0.07610
C         -0.84020       -1.11970       -1.08730
N          0.61950       -0.92720       -1.32900
N          0.61040       -0.22830        1.59950
C         -0.84630       -0.51930        1.46000
Pd         3.73500        0.00030       -0.00050
Br         3.53110       -2.47430        0.19000
C          3.67530        2.05120       -0.35190
C          3.13930        2.94680        0.46630
N          5.83500        0.00060       -0.00090
C          6.52800        1.17940        0.12650
C          7.92560        1.21690        0.09260
Cl         8.77060        2.74720        0.22800
C          8.63230        0.03210       -0.06780
C          7.94020       -1.16620       -0.18540
C          6.54270       -1.16430       -0.14860
H          0.56450        1.85620       -1.24180
H         -1.60400        1.50570       -1.29470
H         -1.59940        1.92780        0.44810
H         -3.44940       -0.10830       -0.90960
H         -3.45260        0.30330        0.83430
H         -3.29030       -1.41990        0.32060
H         -1.37660       -0.93370       -2.04790
H         -1.02310       -2.18200       -0.82520
H          0.77890       -0.37920       -2.20600
H          0.75270        0.66740        2.12080
H         -1.39360        0.06460        2.23480
H         -1.02040       -1.59100        1.68760
H          4.08050        2.38570       -1.30430
H          2.70670        2.64240        1.40850
H          3.13630        3.99360        0.16930
H          6.02240        2.11600        0.26320
H          9.71200        0.04060       -0.10720
H          8.48120       -2.09300       -0.31780
H          6.05280       -2.10750       -0.26730
