55

P          0.98770        0.07370        0.06640
O          0.77110        1.29830        1.23730
C          1.33260        0.85990        2.46150
C          0.83880        1.76490        3.58390
O          0.58540        0.43200       -1.56330
C         -0.81140        0.67150       -1.64090
C         -1.23650        0.92300       -3.07680
C         -0.25750       -1.20690        0.54360
C         -1.11110       -1.07480        1.65950
C         -1.85240       -2.17050        2.12940
C         -1.76620       -3.40900        1.48530
C         -0.97710       -3.53970        0.34770
C         -0.24260       -2.44820       -0.12650
Pd         3.44770        0.07370        0.06640
Br         3.44770        2.59710       -0.51710
C          3.44770       -2.02100        0.55080
C          2.84680       -2.90620       -0.23150
N          5.54770        0.07370        0.06640
C          6.38030        1.24300        0.13340
C          6.01040        2.67630        0.46750
C          7.79300        1.22420        0.08370
C          8.49280        0.06660        0.02440
C         10.00390        0.05990        0.01000
C          7.78950       -1.08040        0.01020
C          6.36750       -1.11530        0.02550
C          5.97410       -2.58090       -0.07850
H          2.44140        0.89100        2.42360
H          1.02320       -0.17080        2.73990
H          1.18880        2.80440        3.41190
H          1.22360        1.40900        4.56170
H         -0.27330        1.76210        3.62250
H         -1.10260        1.54830       -1.02050
H         -1.40380       -0.22100       -1.35040
H         -0.74040        1.82900       -3.47640
H         -2.33960        1.06800       -3.10880
H         -0.98390        0.04370       -3.70770
H         -1.17240       -0.15230        2.21260
H         -2.46740       -2.07730        3.01090
H         -2.30690       -4.26940        1.86660
H         -0.90430       -4.49840       -0.15980
H          0.36650       -2.59890       -0.99590
H          3.90250       -2.32540        1.48190
H          2.43940       -2.56520       -1.17150
H          2.82480       -3.95820        0.03180
H          5.26240        2.71230        1.28410
H          5.90100        3.27740       -0.46360
H          6.81810        3.25270        0.97140
H          8.39320        2.12760        0.13410
H         10.43040        1.08590        0.02060
H         10.37130       -0.45630       -0.90390
H         10.38250       -0.47770        0.90530
H          8.39790       -1.98080       -0.02130
H          6.80600       -3.28490       -0.28910
H          5.30950       -2.76030       -0.94120
H          5.71070       -2.98500        0.91430
