63

P          1.01710       -0.08140        0.05560
C          0.28880        0.22520       -1.57180
C         -0.94110       -0.27360       -2.04590
C         -1.30940       -0.03840       -3.38170
C         -0.48090        0.71000       -4.22300
C          0.71070        1.23890       -3.74960
C          1.09610        0.98820       -2.43580
C          0.69270       -1.88090        0.07410
C          0.50240       -2.72590       -1.04150
C          0.19060       -4.07780       -0.86280
C          0.05780       -4.60790        0.42250
C          0.24690       -3.78700        1.53370
C          0.56490       -2.43950        1.35840
C          0.21120        1.21390        1.06850
C         -0.92450        0.91160        1.86340
O         -1.55550       -0.27810        1.69640
C         -2.79290       -0.60120        2.22800
C         -1.39680        1.86660        2.79700
C         -0.77070        3.09640        2.93950
C          0.28930        3.42760        2.10450
C          0.74960        2.51380        1.14910
Pd         3.47710       -0.08140        0.05560
Br         3.47710       -1.96370       -1.72350
C          3.47710        1.48120        1.53240
C          4.36370        2.43460        1.82180
P          5.93710       -0.08140        0.05560
O          6.93740       -0.89510       -1.08920
C          8.29660       -0.61570       -1.00150
C          8.63300        0.04530        0.31560
C         10.16470        0.13940        0.42720
C          7.98820        1.45780        0.29370
O          6.59610        1.48530        0.00710
O          6.52710       -0.98910        1.37200
C          7.96160       -0.81460        1.45460
H         -1.57310       -0.87460       -1.41340
H         -2.22970       -0.45360       -3.77070
H         -0.77110        0.89170       -5.25800
H          1.35120        1.82910       -4.39650
H          2.04370        1.38620       -2.08600
H          0.58770       -2.35570       -2.05260
H          0.04260       -4.71830       -1.72320
H         -0.19510       -5.65120        0.56180
H          0.13570       -4.19170        2.53300
H          0.68870       -1.81880        2.23790
H         -3.13590       -1.57280        1.82410
H         -3.55270        0.17090        1.92980
H         -2.74610       -0.65630        3.33330
H         -2.24800        1.65590        3.43660
H         -1.11550        3.80130        3.68910
H          0.77680        4.39130        2.21500
H          1.58940        2.79730        0.54050
H          2.61690        1.46790        2.17620
H          5.25570        2.62570        1.28260
H          4.15600        3.11870        2.63820
H          8.60350        0.00440       -1.87500
H          8.82220       -1.59230       -1.08350
H         10.57420        0.72310       -0.43090
H         10.62090       -0.87410        0.37990
H         10.46910        0.63320        1.36850
H          8.48540        2.05620       -0.50350
H          8.17380        1.96660        1.26130
H          8.42670       -1.82560        1.42840
H          8.20910       -0.35050        2.43020
