60

P          1.27500       -0.00000        0.00000
O          0.35580       -0.04430       -1.46650
C         -1.03200       -0.14450       -1.29560
C         -1.40720       -0.09320        0.17010
C         -2.93670       -0.14620        0.30720
C         -0.70530       -1.32900        0.84850
O          0.68800       -1.49280        0.54970
O          0.59180        1.46830        0.50500
C         -0.80870        1.25100        0.73750
Pd         3.73500        0.00030       -0.00050
Br         3.73550       -0.09140        2.58790
C          3.73460        0.07650       -2.14910
C          3.26100       -0.86000       -2.97770
P          6.19500        0.00070       -0.00090
N          7.14160        0.77840       -1.31920
C          6.66300        2.17970       -1.34220
C          8.61630        0.81910       -1.48340
C          9.34980       -0.50080       -1.36130
N          9.15510       -1.20050       -0.07970
C          9.39140       -0.66920        1.26700
C          8.66120        0.62410        1.53540
N          7.18650        0.47210        1.47420
C          6.57570        0.54790        2.79000
N          6.54810       -1.57270       -0.85400
C          5.44840       -2.19940       -1.56130
C          7.19250       -2.57080        0.05110
C          8.69890       -2.57410       -0.16130
H         -1.37770       -1.09430       -1.76410
H         -1.50610        0.69700       -1.84960
H         -3.33260       -1.07880       -0.15730
H         -3.39890        0.71080       -0.23510
H         -3.24600       -0.11020        1.36800
H         -1.21260       -2.24780        0.47610
H         -0.85370       -1.28720        1.94740
H         -1.34610        2.09100        0.24190
H         -1.01650        1.31340        1.82460
H          4.09830        0.99500       -2.59350
H          2.87470       -1.80230       -2.61000
H          3.30660       -0.69030       -4.05060
H          5.55400        2.24160       -1.34710
H          7.01710        2.71670       -2.24770
H          7.01880        2.73060       -0.44090
H          9.10430        1.63160       -0.93100
H          8.80840        1.15840       -2.52610
H         10.43350       -0.34430       -1.54500
H          8.95810       -1.11720       -2.20040
H         10.47810       -0.55030        1.44890
H          9.00400       -1.38320        2.03050
H          9.00450        1.51340        1.01290
H          8.99770        0.91350        2.55390
H          7.22990        0.91350        3.60210
H          6.26320       -0.46470        3.11160
H          5.80300        1.35840        2.78300
H          4.51880       -2.13380       -0.96060
H          5.62070       -3.27600       -1.77010
H          5.45700       -1.78350       -2.58000
H          6.94030       -2.37210        1.10970
H          6.90960       -3.63130       -0.15160
H          8.96790       -3.01040       -1.15040
H          9.21600       -3.21180        0.59030
