56

P          1.07400       -0.01230       -0.06610
O          0.64430        0.29360       -1.68820
C         -0.71380       -0.01740       -1.87500
C         -1.01650       -0.00430       -3.36840
O          0.86910       -1.31640        1.00760
C          1.39340       -2.44180        0.32610
C          0.95560       -3.73710        0.99230
C          0.15220        1.19900        0.89430
C         -0.81140        0.92580        1.87360
C         -1.35880        1.98450        2.61770
C         -0.93190        3.30540        2.39530
C          0.02330        3.57490        1.41470
C          0.55970        2.52740        0.67450
Pd         3.53400       -0.01230       -0.06610
Br         3.53400       -0.10180        2.52240
C          3.53400        0.06210       -2.21480
C          4.48620        0.61470       -2.96960
C          5.68400       -0.01230       -0.06610
N          6.54370       -0.55580       -0.99270
C          6.28480       -1.44590       -2.12810
C          7.80090       -0.28390       -0.55900
C          9.09210       -0.70070       -1.21170
C          7.72480        0.42090        0.61120
C          8.88380        0.96690        1.40770
N          6.42300        0.56380        0.93940
C          5.99370        1.43550        2.03640
H         -1.34880        0.75620       -1.39110
H         -0.96650       -1.03260       -1.49180
H         -0.75240        0.98280       -3.80510
H         -2.09800       -0.19110       -3.53680
H         -0.43130       -0.79430       -3.88630
H          2.50520       -2.40180        0.33830
H          1.02720       -2.51410       -0.72840
H          1.28300       -3.76040        2.05130
H          1.41880       -4.59510        0.45590
H         -0.14830       -3.84660        0.93750
H         -1.12680       -0.08700        2.07570
H         -2.09250        1.79140        3.38460
H         -1.33760        4.12050        2.98450
H          0.36620        4.59270        1.25040
H          1.32220        2.75970       -0.06170
H          2.65370       -0.27500       -2.74320
H          5.36810        1.06640       -2.53710
H          4.36820        0.64410       -4.04870
H          5.22580       -1.74530       -2.19000
H          6.83310       -2.39890       -1.97000
H          6.64950       -0.99000       -3.07310
H          8.93540       -1.27950       -2.13950
H          9.66960       -1.32870       -0.49860
H          9.69200        0.20210       -1.45690
H          9.86120        0.70380        0.95570
H          8.85300        0.56050        2.44000
H          8.82900        2.07460        1.44990
H          6.72130        2.25280        2.20840
H          5.95330        0.87690        2.99280
H          5.06610        1.97960        1.75760
