63

P          0.90920        0.00030       -0.04190
C         -0.17540       -0.51380        1.46330
C         -1.70180       -0.43900        1.32040
C          0.15050       -1.97660        1.84870
C          0.15960        0.38560        2.68810
C          0.44530        1.76480       -0.08130
C          1.25000        2.73270        0.53890
C          0.79000        4.05300        0.67710
C         -0.47360        4.41820        0.20090
C         -1.27480        3.47100       -0.42840
C         -0.82040        2.15940       -0.56730
C          0.36120       -1.13280       -1.36990
C         -0.99370       -1.20590       -1.76690
C         -1.42960       -2.13900       -2.70550
C         -0.51980       -3.02120       -3.28070
C          0.82670       -2.95780       -2.91990
C          1.25430       -2.02120       -1.96940
Pd         3.36920        0.00030       -0.04190
Br         3.37150        0.63860       -2.46440
C          3.33270       -0.69600        1.91450
C          3.59200        0.07280        2.97560
N          5.46920        0.00030       -0.04190
C          6.01920       -0.18760        1.32480
C          5.95310        1.19950       -0.74020
C          6.08420       -1.10610       -0.77250
C          5.33350       -2.13680       -1.33820
C          5.95950       -3.26280       -1.89850
C          7.35220       -3.38820       -1.87710
C          8.12830       -2.37600       -1.32970
C          7.51270       -1.24610       -0.80580
H         -2.09190       -1.17920        0.60770
H         -2.04810        0.58590        1.10430
H         -2.17210       -0.73010        2.28890
H         -0.11610       -2.68300        1.03900
H         -0.36940       -2.27990        2.78320
H          1.20200       -2.13350        2.06250
H         -0.06720        1.45350        2.50320
H          1.20110        0.32090        2.99230
H         -0.41780        0.08690        3.59000
H          2.20740        2.45770        0.95800
H          1.39770        4.79110        1.18120
H         -0.84230        5.42890        0.33070
H         -2.26330        3.74350       -0.78460
H         -1.49550        1.46530       -1.02380
H         -1.74540       -0.56600       -1.35810
H         -2.47770       -2.18280       -2.97460
H         -0.85810       -3.75300       -3.99930
H          1.53160       -3.64180       -3.36580
H          2.27690       -2.00590       -1.68430
H          3.16460       -1.75800        2.07430
H          3.75190        1.13830        2.84270
H          3.59900       -0.35390        3.97120
H          5.80800        0.69140        1.96030
H          7.10660       -0.35160        1.43600
H          5.64960       -1.13350        1.77350
H          5.13260        1.94010       -0.79390
H          6.34480        1.03660       -1.77330
H          6.75410        1.70460       -0.15290
H          4.27540       -2.08430       -1.31700
H          5.36530       -4.05790       -2.32490
H          7.83480       -4.27160       -2.27460
H          9.20810       -2.46840       -1.28790
H          8.16270       -0.49390       -0.37360
