97

P          0.96690        0.03850        0.08610
C          0.02440        1.44300       -1.01840
C          0.62030        1.58810       -2.47320
C          0.02180        0.66240       -3.53460
C         -1.52190        0.78360       -3.62260
C         -2.29000        0.93600       -2.27660
C         -1.49740        1.85790       -1.32300
C          0.78840       -1.61940       -0.97000
C          1.14650       -3.09830       -0.56560
C          0.14150       -3.78590        0.38580
C         -1.25450       -3.83480       -0.25280
C         -1.66420       -2.42960       -0.61660
C         -0.60840       -1.83140       -1.55090
C          0.19220       -0.16770        1.95210
C         -1.21630        0.14040        2.24550
C         -2.25280        0.45960        1.25590
C         -1.82100        0.15090        3.51870
C         -1.16000       -0.21770        4.64950
C         -1.84570       -0.23940        6.00120
C          0.14510       -0.60650        4.48840
C          0.82680       -0.60740        3.23150
C          2.16230       -1.18100        3.43080
Pd         3.42690        0.03850        0.08610
Br         3.84220       -2.19030        1.08740
C          3.77990        1.63400       -1.19390
C          3.10620        2.76820       -1.26740
P          5.88690        0.03850        0.08610
N          7.00380        1.20630       -0.77760
C          6.67820        2.60990       -0.42190
C          8.47770        1.17160       -0.92270
C          9.06260       -0.17760       -1.03640
N          8.66850       -1.02390        0.09040
C          8.72460       -0.73660        1.54140
C          7.88960        0.46950        2.02120
N          6.43300        0.42600        1.74510
C          5.68620       -0.26320        2.77060
N          6.10350       -1.54540       -0.75390
C          5.77750       -1.57340       -2.18320
C          6.92800       -2.64200       -0.19160
C          8.42480       -2.40300       -0.30370
H          0.34650        2.33390       -0.44850
H          1.68800        1.42330       -2.54500
H          0.43230        2.63150       -2.82880
H          0.39010       -0.35300       -3.36560
H          0.45540        0.90870       -4.52840
H         -1.92910       -0.06000       -4.22550
H         -1.71250        1.72260       -4.17370
H         -2.58640        0.00170       -1.76830
H         -3.29650        1.34190       -2.49910
H         -2.08980        2.15340       -0.45830
H         -1.49620        2.84360       -1.83770
H          1.46900       -1.39160       -1.81590
H          2.15100       -3.27510       -0.25120
H          1.12210       -3.70920       -1.50200
H          0.11010       -3.23910        1.34910
H          0.45510       -4.83440        0.57770
H         -2.00000       -4.28160        0.43950
H         -1.23620       -4.45400       -1.17940
H         -1.74970       -1.86970        0.31960
H         -2.65330       -2.44050       -1.12720
H         -0.87470       -0.89430       -1.85210
H         -0.56260       -2.46360       -2.47070
H         -1.85030        0.21920        0.30140
H         -2.63070        1.49750        1.42810
H         -3.12350       -0.22710        1.36820
H         -2.86670        0.41380        3.64280
H         -2.92150        0.08050        5.95570
H         -1.31170        0.43280        6.71070
H         -1.83150       -1.27470        6.40460
H          0.61910       -0.93770        5.42010
H          2.38860       -1.53190        4.47080
H          2.86440       -0.39890        3.24650
H          2.16110       -2.12800        2.88920
H          4.66930        1.56590       -1.81730
H          2.32040        2.97060       -0.56980
H          3.43730        3.53010       -1.96710
H          5.61400        2.83460       -0.34650
H          7.06990        3.30650       -1.20260
H          7.07630        2.89830        0.55880
H          9.02590        1.75250       -0.16540
H          8.72510        1.70100       -1.87850
H         10.16280       -0.14210       -1.13770
H          8.64630       -0.57780       -1.98910
H          9.78020       -0.60820        1.85580
H          8.32390       -1.60690        2.11330
H          8.30110        1.42240        1.67690
H          8.05330        0.57330        3.11680
H          5.92310        0.13780        3.77830
H          5.87590       -1.35340        2.74420
H          4.65640        0.00260        2.57380
H          4.87160       -0.95930       -2.37820
H          5.53460       -2.61350       -2.49560
H          6.61640       -1.19680       -2.79910
H          6.66860       -2.76180        0.87570
H          6.70490       -3.61330       -0.70260
H          8.76750       -2.60950       -1.34530
H          8.99240       -3.11740        0.33350
