35

P          0.92170       -0.06200       -0.00440
C         -0.17070        1.40130        0.05250
C          0.63160       -0.43530       -1.76780
C         -0.12430       -1.00250        1.16250
Pd         3.38170       -0.06200       -0.00440
Br         3.38170        1.42560       -2.12450
C          3.38170       -1.29690        1.75560
C          2.64400       -1.09890        2.84500
N          5.48170       -0.06200       -0.00440
C          6.27120       -0.41460        1.10260
O          5.70600       -0.70880        2.29620
C          6.29300       -0.93100        3.52430
C          7.68010       -0.33990        1.04830
C          8.31550        0.05580       -0.10290
C          7.56120        0.40070       -1.20320
C          6.16490        0.34650       -1.12820
H         -1.22600        1.17570       -0.19040
H          0.21690        2.15400       -0.66900
H         -0.10040        1.85720        1.06410
H         -0.46320       -0.48560       -1.94750
H          1.07380       -1.41860       -2.02230
H          1.01850        0.34510       -2.44050
H         -1.18690       -0.92460        0.83380
H         -0.07300       -0.59050        2.18690
H          0.14300       -2.07560        1.14460
H          3.96630       -2.21160        1.69980
H          1.99830       -0.23990        2.94400
H          2.68180       -1.83480        3.64540
H          5.50070       -1.20970        4.25020
H          6.78610       -0.00470        3.88430
H          7.01430       -1.77160        3.46450
H          8.28770       -0.57080        1.90730
H          9.39580        0.11600       -0.14470
H          8.04220        0.71510       -2.11440
H          5.68870        0.60640       -2.04270
