56

P          1.04010        0.05590        0.07250
C          0.01340       -1.23160        0.87770
C         -1.01650       -0.96280        1.79890
C         -1.59790       -2.00340        2.52870
C         -1.14990       -3.31710        2.38540
C         -0.14470       -3.60340        1.46500
C          0.41610       -2.57720        0.70320
C          0.62250        1.47730        1.12240
C          1.08950        1.55410        2.44440
C          0.62440        2.56530        3.29810
C         -0.31770        3.49390        2.84390
C         -0.77350        3.43340        1.52890
C         -0.29860        2.44290        0.66970
C          0.22280        0.11750       -1.54930
C          0.91060       -0.00050       -2.77370
O          2.25030       -0.21230       -2.76890
C          3.02970       -0.41570       -3.88920
C          0.16700        0.07730       -3.96990
C         -1.20350        0.26440       -3.96920
C         -1.88670        0.35790       -2.75500
C         -1.18180        0.27010       -1.55960
Pd         3.50010        0.05590        0.07250
Br         3.50010        2.29250       -1.23360
C          3.50010       -1.80060        1.15680
C          4.15850       -2.91210        1.56750
N          5.60010        0.05590        0.07250
C          6.28050        1.23550       -0.13120
C          7.68020        1.29590       -0.16730
Cl         8.50110        2.83500       -0.35910
C          8.41760        0.12750       -0.05080
C          7.74650       -1.07140        0.10960
C          6.35210       -1.07480        0.18280
H         -1.35460        0.04500        1.98100
H         -2.37990       -1.78470        3.24950
H         -1.57300       -4.11140        2.98900
H          0.22710       -4.62010        1.37080
H          1.22620       -2.82840        0.02980
H          1.78400        0.81670        2.82450
H          0.97030        2.61540        4.32190
H         -0.70400        4.25520        3.50980
H         -1.51630        4.13910        1.17700
H         -0.70010        2.42060       -0.32810
H          4.07470       -0.60550       -3.57700
H          3.01300        0.48400       -4.53940
H          2.66580       -1.30140       -4.45510
H          0.66430       -0.00140       -4.94360
H         -1.76240        0.33370       -4.89660
H         -2.96320        0.48880       -2.73970
H         -1.73660        0.33950       -0.63440
H          2.52890       -1.83710        1.60260
H          5.14270       -3.28960        1.36910
H          3.61950       -3.61070        2.20290
H          5.77790        2.17430       -0.19850
H          9.49870        0.14380       -0.10410
H          8.29730       -2.00320        0.14730
H          5.90930       -2.00580        0.17100
