81

P          0.96960       -0.07890        0.05340
C          0.50800       -0.19950       -1.72190
C          0.08680        0.94500       -2.42550
C         -0.38140        0.84650       -3.74350
C         -0.45250       -0.39520       -4.37580
C         -0.01610       -1.53490       -3.70740
C          0.47940       -1.43640       -2.40450
C          0.46490       -1.55730        1.03990
C         -0.32480       -2.59340        0.48150
C         -0.74460       -3.68930        1.23600
C         -0.42260       -3.77150        2.58440
C          0.32610       -2.75010        3.17730
C          0.77230       -1.65240        2.41360
C         -0.14510        1.20310        0.76660
C         -1.64500        1.09930        0.80580
C         -2.30070        0.08580        1.52390
C         -3.69090        0.10090        1.65550
C         -4.43880        1.13280        1.08450
C         -3.79820        2.14630        0.36960
C         -2.40970        2.13000        0.22760
Pd         3.42960       -0.07890        0.05340
Br         3.42960       -2.42320       -1.04760
C          3.42960        1.86720        0.96740
C          4.33530        2.80910        0.64610
C          5.57960       -0.07890        0.05340
N          6.41720       -0.68270       -0.88940
C          6.07460       -1.17830       -2.24330
C          6.53470       -0.17820       -3.32940
C          6.55410       -2.61820       -2.53410
C          7.69190       -0.46490       -0.46290
C          7.66470        0.25670        0.69320
C          8.85330        0.64810        1.34750
C         10.08290        0.29620        0.78450
C         10.11640       -0.42470       -0.42120
C          8.92410       -0.80250       -1.05910
N          6.40090        0.54340        1.02850
C          6.18120        1.40800        2.22590
C          6.20160        0.91050        3.62610
C          6.74240        1.75490        4.61340
C          6.45500        1.52690        5.95710
C          5.63670        0.45440        6.32130
C          5.12660       -0.40790        5.34310
C          5.40500       -0.18180        3.99550
H          0.10280        1.91890       -1.96260
H         -0.70960        1.73170       -4.27140
H         -0.84300       -0.47630       -5.38310
H         -0.07250       -2.50150       -4.19440
H          0.80580       -2.35100       -1.94290
H         -0.67260       -2.58110       -0.52670
H         -1.34190       -4.46850        0.77230
H         -0.76930       -4.61840        3.16730
H          0.54610       -2.81410        4.23570
H          1.33300       -0.87170        2.90650
H          0.14770        2.15400        0.27500
H          0.17460        1.31250        1.82410
H         -1.75410       -0.69620        2.02000
H         -4.18480       -0.67540        2.22450
H         -5.51270        1.15570        1.20960
H         -4.37380        2.95800       -0.05600
H         -1.93090        2.94600       -0.30130
H          2.53440        2.24080        1.45210
H          5.17270        2.58710       -0.00420
H          4.21630        3.82580        1.00690
H          5.00090       -1.11410       -2.37810
H          7.63260       -0.07290       -3.45600
H          6.13190        0.82870       -3.07920
H          6.10860       -0.47440       -4.31320
H          7.64690       -2.72660       -2.64310
H          6.12670       -2.96160       -3.49960
H          6.22890       -3.31060       -1.73340
H          8.83720        1.22750        2.26170
H         11.00520        0.59110        1.26180
H         11.07180       -0.67750       -0.86530
H          9.00880       -1.32580       -1.98780
H          5.17090        1.65650        2.37500
H          6.73920        2.36750        2.09900
H          7.30550        2.64220        4.34210
H          6.82250        2.21490        6.70800
H          5.37350        0.31030        7.35940
H          4.46900       -1.21790        5.62280
H          4.93550       -0.79490        3.23480
