45

P          1.27500        0.00000        0.00000
O          0.33560       -0.83540        1.18680
C         -1.04860       -0.66010        1.07620
C         -1.40160        0.17040       -0.13220
C         -2.92800        0.29260       -0.23920
C         -0.71000        1.56870        0.07430
O          0.68010        1.53060        0.42330
O          0.61920       -0.87460       -1.29760
C         -0.77850       -0.56490       -1.37880
Pd         3.73500        0.00030       -0.00050
Br         3.73440        1.29830       -2.24170
C          3.73550       -1.07720        1.86010
C          4.31030       -0.58210        2.95330
N          5.83500        0.00060       -0.00090
C          6.50460        1.15150       -0.35050
C          5.79840        2.47870       -0.42270
C          7.90340        1.20280       -0.35590
C          8.64330        0.07220       -0.02310
C         10.14440        0.09980       -0.02250
C          7.96540       -1.09260        0.31720
C          6.56090       -1.11570        0.36740
C          5.91940       -2.47750        0.50140
H         -1.41860       -0.18100        2.01300
H         -1.51080       -1.66990        1.01090
H         -3.34470        0.77020        0.67660
H         -3.39150       -0.71700       -0.32230
H         -3.22330        0.89300       -1.12170
H         -1.22820        2.07500        0.92090
H         -0.85870        2.19620       -0.82980
H         -1.31500       -1.53420       -1.49630
H         -0.96870        0.03550       -2.29220
H          3.25060       -2.04790        1.89640
H          4.79690        0.38570        2.92710
H          4.29250       -1.15250        3.87720
H          4.73930        2.38780       -0.11340
H          5.92820        2.96870       -1.40650
H          6.22980        3.14330        0.36020
H          8.41640        2.13580       -0.56730
H         10.53680        1.10840       -0.26920
H         10.53350       -0.62460       -0.77260
H         10.51790       -0.18040        0.98280
H          8.54310       -1.98860        0.53050
H          6.67430       -3.28710        0.36930
H          5.20460       -2.61540       -0.34040
H          5.46900       -2.68470        1.47460
