88

C          0.90100       -0.64300       -0.00200
N         -0.29360       -1.16860        0.43990
C         -0.49390       -2.46540        1.07070
C         -1.34090       -2.55180        2.24010
C         -2.28260       -1.46710        2.74300
C         -1.26570       -3.68020        3.06720
C         -0.39100       -4.71680        2.79110
C         -0.15910       -5.81960        3.77280
C          0.30600       -4.72750        1.59820
C          0.25500       -3.65440        0.69960
C          0.98170       -3.92390       -0.61550
C         -1.18700       -0.18110        0.25800
C         -0.54030        0.92540       -0.16460
N          0.79400        0.70610       -0.32720
C          1.76510        1.80260       -0.50020
C          1.44510        3.14010       -0.98800
C          0.16470        3.63260       -1.62670
C          2.40850        4.18900       -0.87070
C          3.65620        3.97430       -0.31040
C          4.66120        5.06430       -0.08780
C          3.99930        2.70670        0.09040
C          3.08920        1.65620        0.00540
C          3.59490        0.40120        0.54680
Pd         2.65840       -1.88140       -0.01350
Br         2.92090       -1.48530       -2.55950
C          2.44060       -2.21030        2.10000
C          2.83770       -3.07460        2.92840
P          4.66930       -3.29850       -0.02670
O          6.05400       -2.90050       -0.99220
C          6.49490       -1.55860       -0.68430
C          7.12140       -1.35770        0.72620
C          7.58520       -1.10020       -1.65160
O          5.83790       -3.74940        1.23080
C          5.61260       -3.69060        2.63610
C          5.02420       -5.04700        3.16100
C          6.88160       -3.44030        3.48290
O          4.42750       -4.53580       -1.20270
C          5.49160       -5.56230       -1.16490
C          6.04550       -6.17390        0.18240
C          5.00840       -6.80530       -1.90720
H         -3.10000       -1.26220        2.02340
H         -1.72980       -0.54370        3.00730
H         -2.84330       -1.78130        3.65100
H         -1.84580       -3.72270        3.98110
H         -0.75730       -5.68330        4.69770
H          0.91580       -5.77680        4.06260
H         -0.37350       -6.80690        3.31950
H          0.92820       -5.58840        1.39070
H          1.40770       -4.95210       -0.63760
H          1.83350       -3.35500       -0.90830
H          0.27010       -3.85140       -1.45640
H         -2.23420       -0.20180        0.48530
H         -1.06690        1.88550       -0.22710
H         -0.58140        2.88090       -1.91980
H          0.40330        4.13370       -2.58890
H         -0.30270        4.40240       -0.97090
H          2.15760        5.19280       -1.19720
H          4.27670        6.05130       -0.40590
H          5.60670        4.83370       -0.61620
H          4.87010        5.10370        1.00690
H          4.98360        2.54700        0.51260
H          4.60870        0.43010        0.97330
H          3.65150       -0.22450       -0.33460
H          2.91720        0.10860        1.36280
H          1.68970       -1.55320        2.52840
H          3.25090       -3.81900        2.37070
H          2.53640       -3.09500        3.97450
H          5.65720       -0.84620       -0.83850
H          8.21250       -1.24530        0.66770
H          7.46620       -2.27520        1.19570
H          6.97490       -0.33520        1.14450
H          8.47750       -1.75590       -1.53590
H          7.89400       -0.05710       -1.38860
H          7.23500       -1.11540       -2.69520
H          5.08660       -2.75030        2.84030
H          5.73070       -5.89070        3.25340
H          4.27220       -5.47560        2.46960
H          4.55590       -4.86580        4.15510
H          7.61830       -4.26250        3.37360
H          6.59700       -3.37720        4.55930
H          7.37700       -2.47340        3.27180
H          6.37390       -5.18540       -1.72640
H          5.24220       -6.60100        0.81450
H          6.76530       -5.58680        0.77100
H          6.75150       -7.00580       -0.02630
H          4.18820       -7.29440       -1.33660
H          5.84330       -7.54410       -1.99570
H          4.67440       -6.54940       -2.92510
