40

P          0.91770       -0.03260        0.04660
C         -0.12320        0.41560       -1.45680
C          0.04570        1.89570       -1.86220
C          0.27860       -0.43330       -2.68910
C          0.50570       -1.86800        0.12500
C          0.99650       -2.53140        1.40850
C         -1.01330       -2.14210        0.03370
C          0.35180        1.30570        1.22710
C         -1.18080        1.31870        1.37070
C          0.92830        1.15190        2.63130
Pd         3.37770       -0.03260        0.04660
Br         3.63820       -0.74720        2.42390
C          3.51460        0.59790       -1.91290
C          3.62500        1.89430       -2.19210
C          5.52770       -0.03260        0.04660
O          6.74580       -0.03260        0.04660
H         -1.19700        0.25750       -1.27040
H          1.09960        2.13480       -2.08540
H         -0.31700        2.59130       -1.09240
H         -0.54530        2.10890       -2.78200
H          1.33590       -0.27160       -2.96960
H         -0.33110       -0.15390       -3.57330
H          0.13700       -1.51700       -2.54270
H          0.99770       -2.39260       -0.71820
H          0.57800       -2.02860        2.30550
H          2.09210       -2.55670        1.42670
H          0.68290       -3.59730        1.43780
H         -1.56620       -1.64050        0.84960
H         -1.21300       -3.23190        0.10740
H         -1.45060       -1.84360       -0.93490
H          0.68830        2.28900        0.84520
H         -1.54710        0.36300        1.80560
H         -1.71350        1.50430        0.42130
H         -1.49650        2.13750        2.05360
H          0.67190        0.16500        3.06850
H          0.52840        1.94160        3.30040
H          2.01850        1.30850        2.60400
H          3.59090       -0.13470       -2.70880
H          3.58890        2.62570       -1.39210
H          3.74520        2.22640       -3.21840
