71

C          0.90100       -0.64300       -0.00200
N          0.65780        0.38850       -0.92020
C          1.29110        0.86710       -2.17280
C         -0.52300        0.93940       -0.59990
C         -1.03870        0.29970        0.46260
N         -0.20890       -0.69180        0.84050
C         -0.57800       -1.43580        2.04700
Pd         2.65840       -1.88140       -0.01350
Br         1.53580       -3.46390        1.58500
C          3.42320       -0.12750       -0.74570
C          4.37190       -0.02200       -1.65630
C          4.41590       -3.11990       -0.02500
N          4.39760       -4.45230        0.02740
C          3.34320       -5.49970       -0.02390
C          2.03250       -5.34900       -0.68420
C          1.48810       -4.11370       -1.35330
C          1.14990       -6.45340       -0.79380
C          1.49350       -7.71240       -0.33030
C          0.61400       -8.92130       -0.52970
C          2.69970       -7.88480        0.30080
C          3.61250       -6.84040        0.47530
C          4.86220       -7.27880        1.22100
C          5.76470       -4.90450       -0.06620
C          6.56000       -3.75560       -0.56470
N          5.78300       -2.63360       -0.18250
C          6.35320       -1.30410       -0.08460
C          7.40710       -0.85110       -0.97220
C          8.19260       -1.71560       -1.96380
C          7.72400        0.50430       -1.03860
C          7.10310        1.43640       -0.21090
C          7.34030        2.89940       -0.41630
C          6.22410        0.99120        0.77680
C          5.85840       -0.36330        0.87210
C          4.95760       -0.75940        2.01890
H          0.65750        1.62620       -2.67870
H          2.21760        1.44600       -2.05430
H          1.40880        0.01960       -2.87850
H         -1.00350        1.75890       -1.12460
H         -1.97950        0.55480        0.93540
H         -1.53510       -1.05790        2.47560
H          0.18270       -1.26820        2.84010
H         -0.79300       -2.49390        1.82960
H          3.02850        0.78140       -0.28530
H          4.75590       -0.91100       -2.12610
H          4.73800        0.96490       -1.92350
H          2.21730       -3.30840       -1.41920
H          0.56440       -3.77510       -0.82320
H          1.17220       -4.34310       -2.38590
H          0.18710       -6.33600       -1.27050
H         -0.33070       -8.66590       -1.04450
H          0.38320       -9.40520        0.44320
H          1.15860       -9.66340       -1.16390
H          2.94350       -8.88880        0.64820
H          4.80040       -8.31820        1.61070
H          5.01350       -6.63700        2.11100
H          5.75810       -7.32620        0.57110
H          5.89550       -5.72000       -0.81130
H          6.12520       -5.11820        0.95080
H          6.59900       -3.77980       -1.68190
H          7.55830       -3.80320       -0.07110
H          8.56260       -2.66330       -1.55860
H          9.18550       -1.24070       -2.13940
H          7.67870       -1.80100       -2.93980
H          8.43920        0.85550       -1.76590
H          8.01600        3.08760       -1.28020
H          7.76260        3.36710        0.49040
H          6.36430        3.37920       -0.66260
H          5.80730        1.72050        1.45880
H          4.67180        0.12040        2.63410
H          5.51750       -1.45070        2.68800
H          4.02880       -1.24530        1.69300
