73

C          0.90100       -0.64300       -0.00200
N         -0.40480       -1.18070        0.01190
C         -0.95500       -2.61560        0.04000
C         -0.13500       -3.80240       -0.01790
C          1.28540       -3.80080       -0.19260
C         -0.62280       -5.11030        0.02430
C         -1.95740       -5.37430        0.07780
C         -2.41500       -6.80470        0.15060
C         -2.82610       -4.29780        0.04870
C         -2.38230       -2.94460        0.01270
C         -3.51360       -1.96080       -0.10000
C         -1.14550       -0.04920       -0.05260
C         -0.35530        1.06230       -0.14220
N          0.95360        0.72720       -0.14830
C          2.00600        1.80800       -0.14450
C          3.22490        1.82330        0.65610
C          3.82440        0.70010        1.39710
C          3.99400        2.98930        0.80920
C          3.65290        4.16760        0.18330
C          4.46090        5.41450        0.40170
C          2.56880        4.17110       -0.68240
C          1.77560        3.02550       -0.87980
C          0.75030        3.17410       -1.96950
Pd         2.65840       -1.88140       -0.01350
Br         2.67250       -1.83740       -2.60310
C          2.64680       -1.91800        2.13620
C          1.78870       -1.24140        2.90770
N          4.37500       -3.09110       -0.02470
C          5.51730       -2.91070       -0.83690
N          5.85970       -1.64080       -1.50620
C          5.05150       -0.43950       -1.46320
C          7.18300       -1.33580       -2.07470
C          6.51090       -3.92840       -0.81940
C          6.39720       -5.03780       -0.00870
C          5.32560       -5.14440        0.84410
C          4.34680       -4.15720        0.84530
H          1.37460       -3.13450       -1.01920
H          1.75190       -4.74100       -0.56250
H          1.68280       -3.56850        0.77920
H          0.06220       -5.96000        0.00910
H         -1.55450       -7.51160        0.19600
H         -3.01070       -7.05790       -0.74800
H         -3.01660       -6.96240        1.06840
H         -3.88800       -4.54200        0.04260
H         -4.50660       -2.45070       -0.16740
H         -3.40940       -1.40510       -1.05630
H         -3.55380       -1.31060        0.79460
H         -2.20560        0.05830       -0.05470
H         -0.73970        2.07470       -0.16420
H          3.37270       -0.15080        0.97670
H          3.76270        0.80810        2.50010
H          4.90340        0.58990        1.14360
H          4.87880        2.98030        1.44480
H          5.33760        5.23130        1.06210
H          3.82380        6.18440        0.88960
H          4.82720        5.80200       -0.56930
H          2.34900        5.08380       -1.21980
H          0.03200        3.98380       -1.73360
H          1.30570        3.44480       -2.89460
H          0.22700        2.23820       -2.23220
H          3.37220       -2.52800        2.65700
H          1.01620       -0.60530        2.50380
H          1.85600       -1.33000        3.98750
H          4.13170       -0.58430       -0.91660
H          4.83440       -0.09580       -2.49840
H          5.59890        0.38840       -0.96550
H          7.94870       -2.11590       -2.04160
H          7.64670       -0.49690       -1.50180
H          7.08560       -1.01180       -3.13020
H          7.41650       -3.90770       -1.38990
H          7.16870       -5.79860       -0.02000
H          5.24090       -6.00870        1.48990
H          3.51390       -4.34320        1.49550
