38

C          1.02400       -0.65300       -0.05500
N          1.01890        0.64170       -0.02770
C          2.13920        1.57790       -0.03620
C          3.52780        0.96500       -0.07930
C         -0.32170        1.16000        0.12290
C         -1.21940       -0.06390       -0.02390
N         -0.30020       -1.16550        0.07350
C         -0.80310       -2.52320        0.21290
C          0.25610       -3.59270        0.40220
Pd         2.78020       -1.86970       -0.29550
Br         2.50940       -1.75200       -2.86860
C          3.00500       -1.96750        1.84050
C          2.08740       -1.51750        2.70420
O          4.45470       -3.02990       -0.52480
C          5.11390       -3.72220        0.39380
N          6.16260       -4.38600       -0.13030
C          6.13490       -4.08300       -1.43520
C          5.07560       -3.24300       -1.66940
H          2.08060        2.18470        0.89900
H          2.02180        2.26800       -0.89320
H          3.70080        0.32890        0.80710
H          4.27180        1.79280       -0.04610
H          3.67270        0.39150       -1.01440
H         -0.57900        1.93140       -0.63550
H         -0.40610        1.58650        1.14700
H         -1.68410       -0.10760       -1.03420
H         -2.00180       -0.06640        0.76430
H         -1.43190       -2.77040       -0.66810
H         -1.45640       -2.55220        1.11570
H          0.92690       -3.64730       -0.47600
H         -0.25750       -4.56970        0.53350
H          0.82830       -3.40570        1.32690
H          3.91150       -2.29920        2.30780
H          1.14300       -1.09850        2.39460
H          2.28850       -1.55000        3.77040
H          4.88550       -3.81720        1.43310
H          6.83680       -4.45650       -2.16900
H          4.83030       -2.85520       -2.63910
