64

P         -1.35000        0.00100        0.79800
N         -0.97370       -1.16670       -0.53480
C         -2.18560       -1.39040       -1.32710
C          0.21610       -1.18700       -1.41080
C          1.52130       -0.95630       -0.70620
N          1.52060        0.28480        0.07660
C          1.17940        1.63840       -0.42860
C         -0.26350        1.82110       -0.99920
N         -1.42500        1.53020       -0.10860
C         -1.69850        2.63870        0.80530
N         -0.17890       -0.62240        1.98850
C         -0.25340       -2.02920        2.39810
C          0.95230        0.22940        2.40530
C          2.09490        0.17380        1.41590
Pd        -3.32260        0.00260        2.26790
Br        -4.85960        0.30230        0.20490
C         -2.04670       -0.24620        3.98040
C         -1.31780        0.78210        4.40550
P         -5.29520        0.00420        3.73770
C         -5.41940        0.84310        5.36890
C         -6.62180        0.79950        2.77920
C         -5.51200       -1.67720        4.57830
C         -4.38870       -2.16530        5.50620
C         -6.86070       -1.71630        5.36310
C         -5.67130       -2.70470        3.44100
H         -3.01710       -1.71030       -0.67180
H         -2.03930       -2.21520       -2.06220
H         -2.46890       -0.46780       -1.88110
H          0.12870       -0.55690       -2.30840
H          0.29430       -2.21360       -1.85710
H          2.38180       -0.99400       -1.39870
H          1.62360       -1.83840       -0.01960
H          1.91240        1.90730       -1.21640
H          1.29840        2.37480        0.39100
H         -0.41630        1.30950       -1.94960
H         -0.32650        2.87690       -1.34270
H         -1.84470        3.57900        0.23090
H         -0.86970        2.78500        1.52730
H         -2.64470        2.45040        1.35480
H         -1.31070       -2.37500        2.37770
H          0.10370       -2.13440        3.44610
H          0.35270       -2.68130        1.74220
H          0.60110        1.27770        2.46030
H          1.32490       -0.04910        3.41470
H          2.63880       -0.78750        1.54500
H          2.84000        0.97380        1.61210
H         -1.92710       -1.18280        4.49040
H         -1.37200        1.73370        3.89010
H         -0.63980        0.66180        5.24480
H         -5.20400        1.91370        5.15960
H         -4.66080        0.54880        6.11010
H         -6.44410        0.86660        5.77990
H         -6.28440        1.81510        2.47780
H         -7.52410        0.90580        3.41380
H         -6.90750        0.19850        1.89870
H         -4.14990       -1.46850        6.32750
H         -3.49440       -2.41470        4.92490
H         -4.69210       -3.11860        5.99060
H         -6.86820       -1.10390        6.28300
H         -7.09070       -2.74320        5.71770
H         -7.70370       -1.39230        4.71210
H         -4.75170       -2.75300        2.82160
H         -6.52340       -2.43220        2.77910
H         -5.87500       -3.71970        3.84920
