81

P          1.05730        0.07660       -0.02900
C          0.29310        1.67080       -0.70900
C         -1.21450        1.93260       -0.87030
C          0.88460        2.84430        0.08400
C          0.71550       -1.21500       -1.32710
C          1.32970       -2.55440       -0.88420
C         -0.77490       -1.46270       -1.59980
C          0.45880       -0.05250        1.76080
C         -1.07240       -0.09770        1.91130
C          0.93410       -1.33530        2.47140
Pd         3.51730        0.07660       -0.02900
Br         3.45580        0.39850       -2.49830
C          3.57170        0.33520        2.01630
C          3.29990        1.51730        2.57290
P          5.97730        0.07660       -0.02900
C          7.03480        0.30770        1.51780
C          6.82110        1.69840        2.15690
C          7.12960        1.51400        3.63700
C          6.39100        0.23450        3.93530
C          6.68800       -0.64520        2.70960
C          6.47250       -1.64350       -0.52300
C          6.03200       -2.80730        0.36190
C          6.45040       -3.99160       -0.49350
C          5.87300       -3.60210       -1.83730
C          6.07930       -2.08370       -1.93840
C          6.50540        1.29520       -1.30120
C          5.99600        2.72400       -1.05590
C          6.94890        3.53690       -1.92190
C          8.28880        2.95590       -1.49420
C          8.04150        1.44170       -1.43070
H          0.71850        1.73300       -1.73460
H         -1.75230        2.13400        0.06010
H         -1.76910        1.19920       -1.46460
H         -1.33480        2.88120       -1.44050
H          0.51170        2.84100        1.12840
H          0.60860        3.81510       -0.38050
H          1.99200        2.78890        0.08240
H          1.17160       -0.93960       -2.28960
H          0.84260       -2.93000        0.03580
H          2.41840       -2.44710       -0.71140
H          1.17260       -3.32750       -1.66930
H         -1.33710       -1.68780       -0.67340
H         -0.91140       -2.31900       -2.29390
H         -1.21950       -0.61970       -2.13610
H          0.82760        0.83430        2.30480
H         -1.50150       -1.00150        1.43460
H         -1.57850        0.77710        1.52230
H         -1.34870       -0.12630        2.98970
H          0.44630       -2.23520        2.05400
H          0.65760       -1.28340        3.54940
H          2.00650       -1.53360        2.42060
H          3.79960       -0.50460        2.65200
H          3.07210        2.37810        1.96440
H          3.31220        1.63340        3.65180
H          8.11840        0.19030        1.33130
H          5.75520        1.97760        2.08300
H          7.41460        2.51060        1.69550
H          6.77230        2.36150        4.27410
H          8.21280        1.35750        3.78440
H          5.31900        0.48830        3.95500
H          6.60090       -0.24420        4.91540
H          5.82660       -1.32490        2.57510
H          7.59490       -1.24630        2.92920
H          7.59170       -1.66720       -0.50190
H          4.92480       -2.79160        0.48930
H          6.53650       -2.87350        1.34100
H          6.09290       -4.97050       -0.11400
H          7.56390       -4.01860       -0.55750
H          4.77600       -3.78170       -1.74460
H          6.23650       -4.19190       -2.70900
H          5.12590       -1.66450       -2.29140
H          6.89300       -1.79130       -2.63820
H          6.12350        1.01430       -2.30430
H          6.15330        3.03870       -0.00800
H          4.92240        2.86530       -1.28690
H          6.87760        4.63480       -1.75400
H          6.76810        3.31470       -2.99470
H          8.46090        3.31840       -0.45230
H          9.17300        3.25700       -2.09430
H          8.65170        1.04170       -0.59950
H          8.35300        0.93430       -2.36620
