54

C          0.90100       -0.64300       -0.00200
N         -0.39050       -1.10420        0.00210
C         -0.88370       -2.49670       -0.17700
C         -2.42490       -2.59710       -0.11800
C         -0.43810       -3.01940       -1.55410
C         -1.17070       -0.00060        0.00120
C         -0.37600        1.10970       -0.01580
N          0.91520        0.71440       -0.02920
C          2.05770        1.61710        0.11820
C          2.14010        2.63190       -1.02630
C          1.91650        2.37040        1.46020
Pd         2.65840       -1.88140       -0.01350
Br         3.44970       -0.73830       -2.19870
C          2.00160       -2.83040        1.80050
C          0.95770       -2.46270        2.55060
N          4.37500       -3.09110       -0.02470
C          5.61030       -2.56420       -0.35240
C          5.86520       -1.08790       -0.44520
C          6.76370       -3.36410       -0.36060
C          6.68320       -4.71570       -0.06160
C          7.90550       -5.58830       -0.06550
C          5.44300       -5.25810        0.23780
C          4.29240       -4.44830        0.27400
C          2.97050       -5.21350        0.26140
H         -0.48630       -3.16570        0.60290
H         -2.90090       -1.98840       -0.91900
H         -2.79950       -2.25700        0.86990
H         -2.75560       -3.64810       -0.26720
H         -0.84560       -2.37010       -2.36180
H         -0.81450       -4.05270       -1.72320
H          0.66690       -3.03270       -1.63640
H         -2.25270        0.02180       -0.02350
H         -0.71980        2.13840        0.00020
H          2.99560        1.02700        0.16280
H          1.21860        3.25270       -1.06920
H          2.27010        2.11100       -1.99380
H          3.00530        3.31270       -0.86290
H          1.01750        3.02820        1.46000
H          2.80440        3.00450        1.66200
H          1.80210        1.64730        2.29730
H          2.59430       -3.61560        2.22730
H          0.30530       -1.64410        2.29860
H          0.74710       -2.99470        3.47320
H          4.98300       -0.49650       -0.14020
H          6.25330       -0.80880       -1.44660
H          6.63340       -0.81140        0.31050
H          7.73120       -2.91840       -0.56180
H          8.82300       -5.00700       -0.29890
H          7.79200       -6.38720       -0.82830
H          8.03360       -6.05580        0.93310
H          5.37250       -6.32690        0.40640
H          3.14800       -6.29320        0.06820
H          2.36590       -4.86680       -0.60430
H          2.35090       -5.26330        1.16240
