49

P          1.05750       -0.05490        0.06070
C          0.21020       -0.09240        1.76460
C         -1.30750        0.06310        1.96730
C          0.61180       -1.33720        2.58260
C          0.69520        1.62180       -0.68680
C         -0.80510        1.93920       -0.89310
C          1.33940        2.77250        0.07410
C          0.58880       -1.62640       -0.84840
C          1.03960       -2.94770       -0.18600
C         -0.91770       -1.74680       -1.15080
Pd         3.51750       -0.05490        0.06070
Br         3.51750       -0.02800       -2.52920
C          3.51750       -0.07720        2.21060
C          4.04610       -1.08430        2.91160
N          5.61750       -0.05490        0.06070
C          6.42150       -0.36180       -1.02870
F          5.96470       -0.78240       -2.21720
C          7.81830       -0.37090       -0.95650
C          8.44970       -0.04370        0.23580
C          7.67650        0.26550        1.32630
C          6.28480        0.25010        1.23440
H          0.68030        0.77280        2.27620
H         -1.88470       -0.78020        1.56240
H         -1.72130        1.01090        1.63410
H         -1.50670        0.06600        3.06700
H         -0.06230       -2.18900        2.40110
H          0.52810       -1.12430        3.67150
H          1.63620       -1.68280        2.38230
H          1.13990        1.59670       -1.70390
H         -1.31580        2.16790        0.04150
H         -1.33620        1.15390       -1.43690
H         -0.91030        2.86250       -1.49660
H          0.94710        2.83600        1.11180
H          1.11830        3.73230       -0.44160
H          2.44720        2.64690        0.09980
H          1.11130       -1.58130       -1.81870
H          0.43050       -3.21350        0.68720
H          2.11480       -2.91870        0.07710
H          0.87260       -3.78360       -0.89910
H         -1.52200       -1.81670       -0.23690
H         -1.12800       -2.66100       -1.73900
H         -1.27210       -0.90660       -1.77210
H          3.04540        0.74640        2.73510
H          4.51500       -1.91830        2.40270
H          4.01840       -1.06190        3.99670
H          8.41180       -0.64960       -1.81320
H          9.52760       -0.05890        0.29960
H          8.15300        0.53670        2.27240
H          5.78350        0.55160        2.12770
