32

C          1.02400       -0.65300       -0.05500
N          1.04820        0.62150       -0.10860
C          2.24700        1.40640       -0.28340
C         -0.28110        1.18380        0.01560
C         -1.20480       -0.05450        0.05860
N         -0.27480       -1.15340        0.07960
C         -0.62360       -2.55140        0.17440
Pd         2.78020       -1.86970       -0.29550
Br         3.27730       -1.65280        2.23710
C          2.36760       -2.04980       -2.39780
C          1.35270       -1.43230       -3.01220
O          4.45470       -3.02990       -0.52480
C          5.19760       -3.50130        0.46480
N          6.26790       -4.18610        0.02120
C          6.17750       -4.11620       -1.31290
C          5.05090       -3.40510       -1.64470
H          3.14560        0.75540       -0.36370
H          2.37590        2.09030        0.58080
H          2.16370        2.00730       -1.21380
H         -0.53190        1.83170       -0.84780
H         -0.33330        1.76150        0.96610
H         -1.81220       -0.13290       -0.86810
H         -1.85760       -0.04030        0.95800
H         -1.72680       -2.66820        0.24370
H         -0.16160       -2.98380        1.08800
H         -0.25410       -3.09070       -0.71870
H          2.93330       -2.67520       -3.05340
H          0.66270       -0.77650       -2.50740
H          1.19450       -1.58920       -4.07530
H          5.01030       -3.39490        1.51420
H          6.89940       -4.53690       -2.00020
H          4.80650       -3.18510       -2.66010
