58

P          0.95140       -0.03430       -0.08040
C          0.13320        0.52520       -1.79660
C         -1.40670        0.52660       -1.93160
C          0.57110        1.95130       -2.23980
C          0.69290       -0.33440       -2.95600
C          0.44870       -1.93930        0.11470
C          1.02960       -2.83550       -1.00630
C          0.88240       -2.46410        1.51380
C         -1.06440       -2.33900        0.12170
C          0.19450        1.17000        1.26940
C         -1.35660        1.03520        1.36890
C          0.77550        0.79610        2.64890
C          0.42490        2.69760        1.15150
Pd         3.41140       -0.03430       -0.08040
Br         3.32200        2.40160       -0.61130
C          3.70530       -2.06300        0.37840
C          4.14330       -2.89590       -0.57520
N          5.51140       -0.03430       -0.08040
C          6.29480       -0.98880        0.54410
C          7.68970       -0.88930        0.59600
Cl         8.62570       -2.04970        1.52200
C          8.32810        0.16040       -0.04540
C          7.56420        1.10350       -0.70880
C          6.17000        1.01260       -0.68620
H         -1.89770        1.32650       -1.37460
H         -1.89010       -0.42210       -1.73670
H         -1.69040        0.76170       -2.98220
H          0.26550        2.76080       -1.58120
H          0.09760        2.23160       -3.21230
H          1.63890        2.01250       -2.46210
H          0.24970       -1.32120       -3.01510
H          1.80340       -0.38300       -2.92370
H          0.41740        0.09290       -3.95150
H          1.95730       -2.45600       -1.42600
H          0.34320       -2.93580       -1.86160
H          1.10990       -3.89780       -0.68770
H          1.82310       -2.08800        1.88870
H          0.85970       -3.57650        1.56370
H          0.17390       -2.15560        2.30250
H         -1.59120       -2.16360       -0.81630
H         -1.64830       -1.95910        0.97140
H         -1.16070       -3.44210        0.24990
H         -1.70480        0.01430        1.33360
H         -1.87720        1.60420        0.60530
H         -1.75120        1.48080        2.32050
H          0.59440       -0.24230        2.92250
H          0.28110        1.39160        3.45010
H          1.85750        1.00420        2.68410
H         -0.11500        3.17020        0.32200
H          1.48430        2.98370        1.16560
H         -0.03060        3.21220        2.02770
H          3.71820       -2.44780        1.38750
H          4.25640       -2.54980       -1.59520
H          4.39540       -3.93040       -0.33480
H          5.89730       -1.79930        1.12160
H          9.40550        0.24300       -0.03000
H          8.04830        1.91980       -1.23110
H          5.65890        1.76770       -1.23750
