123

C          1.02400       -0.65300       -0.05500
N          0.40620       -0.35810        1.10350
C          0.59750       -0.71670        2.53090
C          1.86430       -1.00690        3.05060
C          3.03080       -0.74530        2.30780
C          2.11030       -1.45860        4.35470
C          1.08230       -1.61960        5.25560
C          1.30720       -2.19860        6.61280
C         -0.17300       -1.15920        4.88430
C         -0.44490       -0.67880        3.57450
C         -1.88050       -0.17150        3.52650
C         -0.70420        0.50220        0.84900
C         -0.56780        1.01600       -0.52640
N          0.24220        0.05820       -1.20400
C          0.17250        0.17240       -2.73360
C         -0.81890        0.92690       -3.56500
C         -2.10730        1.63000       -3.14980
C         -0.66600        1.01550       -4.99480
C          0.35140        0.36220       -5.67360
C          0.60790        0.44450       -7.15260
C          1.16590       -0.43910       -4.95470
C          1.06860       -0.51280       -3.56880
C          1.82390       -1.53650       -3.05610
Pd         2.78020       -1.86970       -0.29550
Br         1.69250       -3.72490        1.14790
C          3.68310       -0.32970       -1.49360
C          3.28420        0.86260       -1.94980
C          4.53640       -3.08650       -0.53600
N          4.55170       -4.42750       -0.52130
C          3.53360       -5.51910       -0.64810
C          2.22090       -5.45260       -1.34130
C          1.56900       -4.28690       -1.99950
C          2.22960       -4.29950       -3.40940
C         -0.02220       -4.26460       -2.02930
C          1.52150       -6.62240       -1.70430
C          2.01930       -7.84970       -1.49630
C          3.18210       -7.97460       -0.80950
C          3.92200       -6.88000       -0.28540
C          5.02920       -7.44700        0.66450
C          6.14000       -6.67130        1.42310
C          4.22060       -8.09050        1.81870
C          5.89420       -4.82080       -0.83570
C          6.48740       -3.67420       -1.54720
N          5.88120       -2.56380       -0.94010
C          6.68720       -1.29360       -0.80800
C          7.64960       -0.86190       -1.84910
C          8.25000       -1.56800       -3.13730
C          9.36910       -2.60100       -2.90410
C          7.27860       -1.94240       -4.28130
C          8.18120        0.45530       -1.75000
C          7.91940        1.29570       -0.72220
C          7.19280        0.86220        0.33630
C          6.62160       -0.42590        0.36850
C          5.97760       -0.82010        1.67460
C          6.58300       -2.05340        2.36620
C          5.94430        0.29420        2.78670
H          2.93460       -0.27290        1.32210
H          3.52500       -1.73390        2.30620
H          3.51870        0.04490        2.90040
H          3.11640       -1.70260        4.67610
H          2.37330       -2.47570        6.77050
H          0.70870       -3.13360        6.67080
H          0.98690       -1.50740        7.41660
H         -0.95190       -1.18310        5.63580
H         -2.56560       -0.95040        3.91350
H         -2.35120        0.20840        2.62700
H         -1.92690        0.70570        4.21410
H         -0.74920        1.38800        1.52810
H         -1.58710       -0.16460        0.83310
H         -0.06300        2.00470       -0.60790
H         -1.59520        1.09610       -0.84330
H         -2.76120        1.10130       -2.43450
H         -2.85080        1.51420       -3.97710
H         -1.98660        2.72790       -3.06670
H         -1.36090        1.58450       -5.60500
H         -0.04700        1.17640       -7.65970
H          0.50720       -0.55530       -7.63270
H          1.66530        0.77010       -7.28790
H          1.90030       -1.03850       -5.49090
H          2.81050       -1.69850       -3.54120
H          1.02130       -2.23400       -3.19200
H          1.82620       -1.54850       -2.02590
H          4.65960       -0.58020       -1.83820
H          2.32310        1.30280       -1.77080
H          3.97710        1.41280       -2.58970
H          1.80640       -3.43490       -1.39290
H          2.27570       -5.30770       -3.84410
H          3.26180       -3.90910       -3.28050
H          1.70280       -3.75690       -4.21650
H         -0.45230       -4.89210       -2.83980
H         -0.47170       -3.26290       -2.20810
H         -0.46490       -4.57070       -1.05580
H          0.59480       -6.62440       -2.26240
H          1.47870       -8.71120       -1.86920
H          3.50450       -8.99780       -0.67010
H          5.56700       -8.23930        0.09170
H          5.79110       -5.69790        1.83340
H          7.08330       -6.61760        0.83040
H          6.48700       -7.23150        2.31550
H          3.83990       -7.27770        2.47110
H          4.85760       -8.79820        2.36510
H          3.32960       -8.66710        1.49790
H          5.99960       -5.72890       -1.47300
H          6.49940       -4.79860        0.06970
H          6.15110       -3.74860       -2.56000
H          7.57560       -3.69820       -1.31840
H          8.83510       -0.79210       -3.65540
H          9.09920       -3.60060       -2.56880
H         10.11510       -2.18500       -2.19870
H          9.89040       -2.80660       -3.86390
H          6.85010       -2.94600       -4.22750
H          7.85170       -1.98910       -5.24060
H          6.48540       -1.16810       -4.38750
H          8.83880        0.88080       -2.48970
H          8.33280        2.30430       -0.70470
H          7.11790        1.58980        1.12730
H          5.03730       -1.08170        1.27030
H          7.61630       -1.84350        2.71800
H          6.57030       -2.94960        1.72430
H          5.97360       -2.29440        3.27260
H          6.97660        0.58530        3.09240
H          5.47070       -0.05310        3.72870
H          5.40090        1.19940        2.44570
