40

C          0.90100       -0.64300       -0.00200
N         -0.35220       -1.12310        0.06590
C         -0.75910       -2.52160        0.08260
C         -1.16620       -0.05400        0.01560
C         -0.38540        1.07500       -0.08800
N          0.92190        0.70340       -0.11200
C          2.07560        1.58430       -0.16270
C          1.92860        2.98550       -0.22270
C          3.04950        3.82380       -0.25100
C          4.33360        3.28390       -0.22330
C          4.50340        1.90210       -0.15520
C          3.38620        1.06010       -0.12600
Pd         2.65840       -1.88140       -0.01350
Br         2.78370       -1.67970       -2.59260
C          2.55450       -2.04890        2.12740
C          1.61280       -1.47990        2.88580
N          4.37500       -3.09110       -0.02470
C          5.31530       -3.04700        0.97790
F          5.25340       -2.13290        1.97310
C          6.47900       -3.81730        0.90320
C          6.66750       -4.67870       -0.17030
C          5.71400       -4.72920       -1.17940
C          4.59340       -3.89940       -1.10670
H          0.13090       -3.18610        0.06870
H         -1.35700       -2.73140       -0.83350
H         -1.37750       -2.73300        0.97630
H         -2.24510       -0.09440        0.03390
H         -0.76330        2.08530       -0.13900
H          0.95570        3.45030       -0.23700
H          2.91830        4.89900       -0.29080
H          5.19800        3.93620       -0.24170
H          5.50110        1.48440       -0.12200
H          3.57400        0.00670       -0.06580
H          3.26720       -2.64580        2.67050
H          0.82270       -0.86550        2.48540
H          1.62950       -1.63140        3.96100
H          7.24190       -3.72750        1.66640
H          7.55790       -5.29060       -0.22890
H          5.84150       -5.40300       -2.01680
H          3.86120       -3.97680       -1.89150
