37

C         -0.32800       -1.08200        0.00300
N          0.56870       -0.57220        0.86830
H          1.01940       -1.06860        1.66860
C          0.70310        0.72010        0.52670
Cl         1.71670        1.87140        1.37620
C         -0.07930        0.96120       -0.58240
Cl        -0.18100        2.46070       -1.48500
N         -0.74930       -0.16580       -0.88880
Pd        -0.94440       -3.14170        0.01670
Br        -3.05550       -2.50090        1.37340
C          0.80810       -3.67360       -1.10960
C          1.86340       -2.88030       -1.30590
C         -1.56080       -5.20140        0.03030
N         -0.77910       -6.33490       -0.06510
C          0.67250       -6.52080       -0.01280
C         -1.62700       -7.39640       -0.04610
C         -1.26300       -8.85650       -0.09720
C         -2.90940       -6.94270        0.05250
C         -4.15890       -7.79280        0.08240
N         -2.88830       -5.59870        0.11850
C         -4.13040       -4.82720        0.05210
H         -1.39710       -0.32000       -1.69250
H          0.82050       -4.62320       -1.62370
H          1.93700       -1.88970       -0.88690
H          2.67880       -3.22580       -1.93450
H          1.21160       -5.60850        0.28110
H          1.04080       -6.95850       -0.96630
H          0.91260       -7.22400        0.81240
H         -0.17400       -9.03040       -0.17500
H         -1.75320       -9.32890       -0.97540
H         -1.63400       -9.35560        0.82420
H         -3.93960       -8.87610        0.05210
H         -4.80670       -7.56720       -0.79320
H         -4.72970       -7.58240        1.01610
H         -4.93810       -5.39020       -0.45210
H         -4.01050       -3.94920       -0.61650
H         -4.53080       -4.64340        1.07050
