27

C         -0.32800       -1.08200        0.00300
N          0.54370       -0.52000       -0.85570
H          0.97990       -0.96760       -1.69220
C          0.58990        0.78420       -0.51180
Cl         1.44330        2.03250       -1.39660
C         -0.16230        0.96300        0.62870
Cl        -0.33380        2.43420        1.57230
N         -0.76780       -0.19890        0.92370
Pd        -0.94440       -3.14170        0.01670
Br         1.48990       -3.86680        0.52320
C         -2.96510       -2.53980       -0.40380
C         -3.38220       -1.26590       -0.38460
N         -1.54650       -5.15350        0.03000
C         -0.68800       -6.26940        0.16080
F          0.63800       -6.22860        0.32030
C         -1.12050       -7.59330        0.12660
C         -2.45200       -7.89000       -0.03800
C         -3.33040       -6.85400       -0.15650
C         -2.88250       -5.52920       -0.09950
H         -1.38060       -0.40020        1.73970
H         -3.78850       -3.12330       -0.72200
H         -2.77490       -0.42170       -0.15280
H         -4.40920       -1.02000       -0.63540
H         -0.41770       -8.40210        0.24640
H         -2.78410       -8.91850       -0.07880
H         -4.38550       -7.07010       -0.28190
H         -3.70690       -4.90390       -0.15670
