45

C         -0.21120       -1.27970       -0.03920
N         -1.11600       -0.23090        0.00460
C         -2.57030       -0.25260        0.05980
C         -0.36960        0.92240       -0.01050
C         -0.85420        2.36750        0.02200
C          0.95960        0.58510       -0.05450
C          2.12420        1.54830       -0.06580
N          1.04740       -0.76640       -0.06910
C          2.28830       -1.53010       -0.08310
Pd        -0.49020       -3.48260       -0.01010
Br        -0.68650       -3.44500       -2.59230
C         -0.32720       -3.51390        2.13350
C         -0.15090       -2.41740        2.87490
N         -0.83260       -5.49810        0.04510
C          0.13470       -6.36670       -0.41250
C          1.45010       -5.88800       -0.94780
C         -0.05530       -7.75570       -0.30970
C         -1.21400       -8.25000        0.27820
C         -2.19660       -7.36790        0.70550
C         -2.01450       -5.98360        0.55850
C         -3.16460       -5.06700        0.83550
H         -2.96180       -1.28660        0.06270
H         -2.98440        0.29420       -0.81890
H         -2.92310        0.27870        0.97390
H         -1.95390        2.48630        0.05570
H         -0.47890        2.91050       -0.87660
H         -0.42590        2.89280        0.90730
H          1.80580        2.61240       -0.04420
H          2.72560        1.39840       -0.98530
H          2.76080        1.37590        0.82650
H          3.17120       -0.85710       -0.08630
H          2.32230       -2.16200       -0.99030
H          2.33430       -2.15000        0.83370
H         -0.38310       -4.47390        2.63650
H         -0.08290       -1.43180        2.44120
H         -0.06460       -2.49670        3.95240
H          1.56300       -4.79230       -0.83870
H          1.56280       -6.18010       -2.01270
H          2.26940       -6.37440       -0.37100
H          0.70560       -8.45000       -0.64650
H         -1.35670       -9.31740        0.38630
H         -3.11420       -7.76600        1.12370
H         -4.07660       -5.64770        1.10480
H         -3.40490       -4.55660       -0.12500
H         -2.98160       -4.30550        1.61400
