30

N         -0.65900       -1.22800       -0.05100
C          0.67880       -1.14730        0.20310
C          1.49140       -2.39620        0.33040
C          1.27620        0.10690        0.39230
C          0.49220        1.25920        0.31840
C         -0.87780        1.15040        0.07530
C         -1.44110       -0.11490       -0.09600
Pd        -1.57560       -3.10440       -0.27260
Br        -2.09850       -3.14840        2.26370
C         -1.14160       -3.06780       -2.37800
C         -0.34040       -2.15230       -2.93100
O         -2.47040       -4.93600       -0.48890
C         -2.71760       -5.61190       -1.60590
C         -3.34710       -6.79930       -1.31510
C         -3.45540       -6.85170        0.04450
C         -2.91960       -5.67570        0.51560
H          0.86300       -3.29640        0.17320
H          1.92140       -2.44890        1.35610
H          2.31640       -2.39290       -0.40970
H          2.33460        0.18810        0.60430
H          0.94190        2.23220        0.46470
H         -1.49690        2.03650        0.02380
H         -2.50250       -0.21470       -0.28160
H         -1.54860       -3.73460       -3.10140
H          0.14350       -1.37460       -2.36480
H         -0.17010       -2.16310       -4.00400
H         -2.54540       -5.34490       -2.61950
H         -3.68800       -7.54240       -2.02410
H         -3.87870       -7.65690        0.62970
H         -2.86030       -5.46690        1.56340
