29

N         -0.65900       -1.22800       -0.05100
C         -1.34500       -0.01550       -0.04280
Cl        -3.03100        0.21370       -0.47730
C         -0.66880        1.20470        0.08720
C          0.70230        1.22790        0.24970
C          1.39150        0.03040        0.28680
C          0.69620       -1.17330        0.13490
Pd        -1.57560       -3.10440       -0.27260
Br        -3.65270       -2.31320        0.91290
C          0.17770       -3.88500       -1.31060
C          1.34800       -3.38650       -1.75490
N         -2.49230       -4.98070       -0.49410
C         -1.79720       -6.18750       -0.57810
Cl        -0.15320       -6.44810        0.05340
C         -2.44990       -7.40200       -0.80270
C         -3.81680       -7.43130       -0.97690
C         -4.53340       -6.25530       -0.84010
C         -3.86620       -5.05630       -0.55510
H         -1.20830        2.14370        0.03060
H          1.22350        2.17210        0.34640
H          2.46220        0.03090        0.44480
H          1.26200       -2.07120        0.27730
H          0.09110       -4.88240       -1.66390
H          1.70520       -2.37620       -1.69140
H          2.02290       -4.04890       -2.29210
H         -1.89540       -8.33400       -0.80030
H         -4.31860       -8.37020       -1.17230
H         -5.60770       -6.26970       -0.96810
H         -4.49140       -4.18880       -0.53480
