29

N         -1.41370       -0.02650       -0.08000
C         -0.77160        1.16650       -0.20390
C          0.62470        1.25080       -0.15390
C          1.38120        0.09600        0.01000
C          0.73650       -1.12650        0.13360
C         -0.65960       -1.17160        0.08250
Pd        -3.47560       -0.20170       -0.28210
Br        -3.39440        1.86660       -1.83880
C         -3.54310       -1.91870        1.01020
C         -2.66490       -2.20120        1.98530
N         -5.53600       -0.30380       -0.48690
C         -6.17740       -1.51450       -0.54490
F         -5.49660       -2.67440       -0.67270
C         -7.55440       -1.60400       -0.73000
C         -8.31510       -0.45110       -0.80060
F         -9.65840       -0.53330       -0.95810
C         -7.68420        0.78390       -0.73170
C         -6.28940        0.84660       -0.61690
F         -5.74230        2.07340       -0.46410
H         -1.32380        2.08300       -0.29230
H          1.12120        2.20750       -0.24630
H          2.46300        0.14550        0.03130
H          1.31510       -2.03610        0.24400
H         -1.11260       -2.15080        0.08830
H         -4.40360       -2.54600        1.13190
H         -1.82900       -1.56170        2.22970
H         -2.83990       -3.05000        2.64580
H         -8.02080       -2.57420       -0.84790
H         -8.27440        1.69010       -0.75940
