36

N         -0.65900       -1.22800       -0.05100
C         -1.36870       -0.09650        0.28670
C         -2.81450       -0.16480        0.69700
C         -0.72240        1.14540        0.36250
C          0.64450        1.22660        0.11740
C          1.36220        0.06850       -0.16290
C          0.69440       -1.15580       -0.22220
Pd        -1.57560       -3.10440       -0.27260
Br         0.25110       -3.95150        1.22180
C         -3.02380       -2.18450       -1.57980
C         -2.88730       -0.98040       -2.16120
N         -2.49230       -4.98070       -0.49410
C         -1.76490       -6.10270       -0.18830
C         -2.27170       -7.38940       -0.38390
C         -3.55370       -7.55790       -0.91690
O         -4.09090       -8.77630       -1.18070
C         -3.45480       -9.98550       -0.99580
C         -4.30580       -6.42580       -1.19440
C         -3.77270       -5.15740       -0.96280
H         -3.18620       -1.20760        0.71470
H         -3.44710        0.46290        0.03620
H         -2.91340        0.21160        1.73670
H         -1.27290        2.03970        0.62860
H          1.14980        2.18230        0.16640
H          2.42770        0.11870       -0.34610
H          1.25810       -2.04100       -0.47770
H         -3.87530       -2.67850       -1.97220
H         -2.04370       -0.32990       -2.02310
H         -3.63490       -0.63910       -2.87350
H         -0.76460       -6.04500        0.18300
H         -1.64910       -8.23860       -0.13680
H         -4.12620      -10.80310       -1.32710
H         -3.21640      -10.12810        0.07880
H         -2.52390      -10.02500       -1.60230
H         -5.30640       -6.52220       -1.59900
H         -4.43670       -4.36110       -1.17750
