26

N         -1.39000       -0.11200       -0.05400
C         -0.75710        1.09080       -0.24880
C          0.63410        1.20390       -0.21330
C          1.40560        0.08050        0.05050
Cl         3.15660        0.19350        0.05330
C          0.77330       -1.13140        0.30580
C         -0.62360       -1.20650        0.25280
Pd        -3.47560       -0.20170       -0.28210
Br        -3.64740        2.20530        0.43500
C         -3.38380       -2.27000       -0.88390
C         -2.34990       -2.91640       -1.43470
O         -5.51160       -0.28930       -0.50470
C         -6.30260       -1.31270       -0.83080
N         -7.59840       -0.96120       -0.91010
C         -7.60860        0.34550       -0.64130
C         -6.32470        0.74850       -0.37610
H         -1.29560        1.97910       -0.51200
H          1.10530        2.15830       -0.41490
H          1.35850       -2.01270        0.53490
H         -1.07510       -2.15390        0.48700
H         -4.23000       -2.91520       -0.87170
H         -1.41290       -2.44820       -1.68880
H         -2.47190       -3.95110       -1.74860
H         -6.06360       -2.33300       -0.98720
H         -8.49540        0.96420       -0.65790
H         -6.08070        1.77060       -0.17140
