29

N         -0.65900       -1.22800       -0.05100
C         -1.36890       -0.17790        0.44480
F         -2.66230       -0.35030        0.81000
C         -0.76790        1.07880        0.56610
C          0.56290        1.24020        0.17390
C          1.27490        0.14960       -0.32780
C          0.63980       -1.08960       -0.43140
Pd        -1.57560       -3.10440       -0.27260
Br        -0.84370       -3.74540        2.12770
C         -2.18320       -2.57220       -2.26510
C         -2.04320       -1.34890       -2.78080
N         -2.49230       -4.98070       -0.49410
C         -1.99570       -6.06050        0.18760
C         -2.54040       -7.33790        0.02070
F         -2.00120       -8.40180        0.66400
C         -3.62930       -7.51230       -0.82480
C         -4.15510       -6.41130       -1.49300
C         -3.56660       -5.15610       -1.32520
H         -1.32690        1.92100        0.95270
H          1.04100        2.20780        0.25420
H          2.30530        0.26360       -0.63910
H          1.17630       -1.94250       -0.82610
H         -2.60030       -3.31180       -2.93160
H         -1.62200       -0.52670       -2.22460
H         -2.35630       -1.15930       -3.80310
H         -1.13140       -5.97270        0.81820
H         -4.06310       -8.49420       -0.96800
H         -5.01170       -6.52980       -2.14870
H         -4.02630       -4.33010       -1.83710
