57

P          1.04540        0.00860       -0.08870
O         -0.35950        0.99230       -0.09710
C         -0.12190        2.07030        0.81070
O          0.68920       -0.88650       -1.50150
C          0.64110       -0.04730       -2.62840
O          0.73480       -0.61730        1.48290
C         -0.62060       -1.05180        1.55640
Pd         3.50540        0.00860       -0.08870
Br         3.50540       -2.58010       -0.00610
C          3.50540        2.15750       -0.15720
C          3.22570        3.06510        0.78360
P          5.96540        0.00860       -0.08870
C          6.63490        0.64020       -1.67140
C          7.02510        1.95620       -1.94560
C          7.41790        2.32400       -3.24200
C          7.39990        1.39200       -4.28260
F          7.78810        1.73870       -5.52580
C          7.01800        0.07300       -4.02430
C          6.60660       -0.28640       -2.74990
C          6.64500        1.37340        0.92360
C          5.86640        2.04720        1.86530
C          6.40630        3.04170        2.68850
C          7.76940        3.32780        2.63340
F          8.30090        4.27130        3.45090
C          8.58980        2.60580        1.76590
C          8.03430        1.63810        0.92020
C          6.93730       -1.59820        0.02490
C          6.41760       -2.73410        0.67920
C          7.02250       -3.99020        0.60930
C          8.25690       -4.12910        0.00010
F          8.84120       -5.35270       -0.06540
C          8.89940       -2.99670       -0.50120
C          8.24700       -1.74700       -0.50380
H         -0.44530        3.03710        0.37820
H          0.93160        2.22760        1.09080
H         -0.63710        1.90290        1.77880
H         -0.05400       -0.51200       -3.36070
H          1.64470        0.01810       -3.09250
H          0.22090        0.96320       -2.43630
H         -0.77450       -1.64410        2.47680
H         -0.92360       -1.67950        0.68870
H         -1.33550       -0.20560        1.66310
H          3.76170        2.54370       -1.13860
H          2.95280        2.79390        1.79570
H          3.28370        4.12090        0.53000
H          7.00940        2.73490       -1.20440
H          7.71650        3.34480       -3.45770
H          7.00090       -0.65480       -4.82390
H          6.28650       -1.30240       -2.58440
H          4.84850        1.76890        1.99260
H          5.77120        3.56860        3.38950
H          9.65740        2.79020        1.75780
H          8.70150        1.08070        0.27760
H          5.53320       -2.68260        1.24870
H          6.52530       -4.85390        1.04120
H          9.89270       -3.10320       -0.91630
H          8.77070       -0.90740       -0.93170
