29

N         -1.39000       -0.11200       -0.05400
C         -0.76240        1.11350        0.11560
C          0.64190        1.28480        0.14520
O          1.24160        2.50500        0.17350
C          0.61220        3.72820        0.03110
C          1.44720        0.16720        0.09450
C          0.85740       -1.07170       -0.03330
C         -0.53320       -1.17410       -0.13290
Pd        -3.47560       -0.20170       -0.28210
Br        -3.58800        2.38580       -0.27310
C         -3.38240       -2.34970       -0.28950
C         -2.73240       -3.54530       -0.30670
C         -5.61100       -0.29360       -0.51560
N         -6.31480       -1.38800       -0.87080
C         -7.59110       -0.96950       -0.89790
C         -7.62140        0.36340       -0.56430
O         -6.38980        0.75040       -0.33530
H         -1.27330        2.02010        0.17590
H          1.37670        4.53070       -0.00750
H         -0.06460        3.91560        0.88890
H          0.03780        3.75940       -0.92280
H          2.52580        0.25810        0.12640
H          1.47790       -1.95890       -0.08120
H         -0.85220       -2.11870       -0.27030
H         -4.42080       -2.62830       -0.26090
H         -1.69620       -3.82710       -0.33910
H         -3.33850       -4.45040       -0.29240
H         -8.43850       -1.59460       -1.14550
H         -8.49630        0.99620       -0.49870
