45

N          1.14300       -0.69700        0.08900
C         -0.08220       -1.23810        0.39520
C         -0.22500       -2.58540        1.02190
C         -1.25150       -0.49790        0.17270
C         -1.16680        0.79420       -0.33230
C          0.08060        1.33630       -0.62710
C          1.23710        0.57090       -0.41580
C          2.58580        1.13550       -0.73970
Pd         2.95390       -1.70510        0.42730
Br         2.84100       -2.70820       -1.95800
C          3.04760       -0.87250        2.40730
C          2.17750        0.01520        2.89290
N          4.76480       -2.71320        0.76550
C          5.03020       -3.98010        0.60780
C          4.04120       -5.08530        0.38240
C          2.66570       -4.83340        0.31630
C          1.72930       -5.86410        0.17290
C          2.15850       -7.18890        0.11930
C          3.51880       -7.47450        0.20210
C          4.45150       -6.43990        0.33170
N          6.39850       -4.24520        0.87950
C          7.07730       -3.00820        1.08950
C          5.92930       -2.00630        1.25610
H          0.74320       -2.97610        1.34770
H         -0.72780       -3.28350        0.31880
H         -0.83540       -2.50200        1.94600
H         -2.22380       -0.91020        0.41940
H         -2.06490        1.37820       -0.48500
H          0.14150        2.34560       -1.01560
H          2.50840        2.17410       -1.12640
H          3.06750        0.50770       -1.51950
H          3.22040        1.14410        0.16940
H          3.83760       -1.19760        3.06840
H          1.34750        0.39080        2.31490
H          2.29300        0.37660        3.91000
H          2.32350       -3.83380        0.38520
H          0.67250       -5.63410        0.12000
H          1.43500       -7.98810        0.02060
H          3.84980       -8.50440        0.17790
H          5.48630       -6.72520        0.41140
H          6.87060       -5.14800        0.78520
H          7.66200       -2.81140        0.16170
H          7.74130       -3.02130        1.97580
H          6.14400       -1.09450        0.65820
H          5.78620       -1.75580        2.32170
