52

P          1.08080       -0.05810        0.00980
O         -0.13020        0.79980       -0.86090
C          0.26960        2.17440       -0.79050
C         -0.48870        3.07670       -1.74720
O          0.65840       -1.66420       -0.38750
C          0.68190       -1.87660       -1.77280
C          0.02820       -3.22970       -2.03310
O          0.65580        0.61490        1.53910
C         -0.73940        0.39510        1.76350
C         -1.24710        1.23210        2.92560
Pd         3.54080       -0.05810        0.00980
Br         3.54080       -1.80560        1.92150
C          3.54080        1.39240       -1.57710
C          3.25270        1.10440       -2.84470
P          6.00080       -0.05810        0.00980
N          7.12390       -0.99330        1.00040
C          6.90190       -2.43100        0.73750
C          8.53980       -0.65120        0.89750
O          6.77460       -0.50450       -1.45890
C          6.29570        0.17140       -2.56450
O          6.28800        1.48000        0.68620
C          5.80390        1.49510        2.01330
H          1.32850        2.32060       -1.05980
H          0.10810        2.58590        0.22930
H         -0.30800        2.77450       -2.79770
H         -0.11140        4.12000       -1.61830
H         -1.57060        3.06700       -1.51410
H          1.73050       -1.90510       -2.13650
H          0.08670       -1.12050       -2.32940
H          0.57300       -4.02850       -1.48490
H          0.03700       -3.46400       -3.11730
H         -1.02590       -3.21670       -1.67760
H         -0.95110       -0.67830        1.94670
H         -1.39150        0.74670        0.93690
H         -0.76130        0.91950        3.87040
H         -2.34820        1.09480        3.01980
H         -1.05420        2.31000        2.73500
H          3.76510        2.41960       -1.30750
H          3.02250        0.09050       -3.14650
H          3.27260        1.89510       -3.58980
H          5.82190       -2.67640        0.65710
H          7.29750       -3.05440        1.57200
H          7.37770       -2.75620       -0.21150
H          8.69850        0.38930        1.22870
H          8.92340       -0.81520       -0.11060
H          9.11080       -1.31740        1.61940
H          7.01570       -0.01380       -3.38390
H          6.27110        1.27210       -2.40100
H          5.35550       -0.28790       -2.90120
H          6.47070        2.13850        2.62150
H          5.81180        0.50740        2.53370
H          4.77900        1.91210        2.03100
