44

P          1.04150        0.08000       -0.04330
O         -0.19050        0.57400       -1.14360
C          0.16630        1.90520       -1.53500
C         -0.53800        2.38090       -2.79280
O          0.63760       -1.56440        0.13880
C          0.65150       -2.24090       -1.09190
C         -0.02690       -3.58650       -0.86560
O          0.61170        1.23620        1.16340
C         -0.78570        1.10420        1.45510
C         -1.30060        2.30420        2.23600
Pd         3.50150        0.08000       -0.04330
Br         3.50780       -0.61290        2.34010
C          3.36160        0.60110       -2.06540
C          3.60790        1.83740       -2.49150
N          5.60150        0.08000       -0.04330
C          6.12460        0.48980       -1.34150
N          6.18110        0.78800        0.99470
C          7.16870        0.19840        1.55380
C          7.22250       -1.08820        1.12020
C          6.16120       -1.19710        0.25430
H          1.22860        2.00250       -1.76750
H         -0.06960        2.63700       -0.73260
H         -0.28660        1.72840       -3.65500
H         -0.18570        3.41100       -3.02590
H         -1.63170        2.41310       -2.62990
H          1.69850       -2.41240       -1.41470
H          0.07280       -1.71530       -1.87480
H          0.50510       -4.15990       -0.07450
H         -0.02660       -4.17790       -1.80490
H         -1.07930       -3.43180       -0.53920
H         -0.99130        0.16640        2.01190
H         -1.44520        1.12250        0.56440
H         -0.81750        2.35630        3.23010
H         -2.40210        2.20880        2.36950
H         -1.10760        3.24300        1.67040
H          3.09330       -0.18010       -2.78060
H          3.84860        2.63040       -1.78930
H          3.51360        2.06930       -3.54910
H          5.87740        1.54730       -1.53650
H          5.76060       -0.17580       -2.15310
H          7.23840        0.44850       -1.36530
H          7.79410        0.65410        2.30990
H          7.90390       -1.86840        1.43110
H          5.88800       -2.11050       -0.25790
