66

P          0.93790       -0.06360        0.04590
O         -0.28390       -0.15510        1.25240
C          0.10270       -1.25410        2.08870
C         -0.62800       -1.28470        3.41920
O          0.51130        1.40810       -0.70770
C          0.53660        2.47800        0.19700
C         -0.13380        3.66390       -0.48760
O          0.53010       -1.57460       -0.68030
C         -0.86320       -1.56820       -1.01140
C         -1.35130       -2.97280       -1.33760
Pd         3.39790       -0.06360        0.04590
Br         3.39790        0.00290       -2.54320
C          3.39790       -0.11870        2.19520
C          2.94010        0.89400        2.92920
P          5.85790       -0.06360        0.04590
O          6.71880        1.12200       -0.86580
C          6.37700        2.39290       -0.33190
C          7.23940        3.46530       -0.99920
C          4.88590        2.78480       -0.53570
O          6.85140        0.26000        1.44500
C          6.48080       -0.17100        2.73670
C          6.67420       -1.67330        2.94030
C          7.34140        0.58830        3.74950
O          6.30870       -1.14590       -1.21060
C          7.74510       -1.42540       -1.22430
C          8.50650       -1.62250        0.12260
C          7.99240       -2.73250       -1.98360
H          1.17420       -1.22780        2.36150
H         -0.10190       -2.22570        1.58760
H         -0.40360       -0.37310        4.00840
H         -0.27030       -2.16810        3.99960
H         -1.71820       -1.39070        3.25940
H          1.58610        2.74890        0.43730
H         -0.04520        2.26810        1.12130
H          0.39920        3.90960       -1.43160
H         -0.12320        4.55290        0.17520
H         -1.18920        3.41300       -0.73550
H         -1.07180       -0.88650       -1.86210
H         -1.52930       -1.28740       -0.16860
H         -0.84200       -3.36360       -2.23500
H         -2.45130       -2.94650       -1.52310
H         -1.17030       -3.65030       -0.47370
H          3.73800       -1.02950        2.67910
H          2.56740        1.79360        2.45760
H          2.92880        0.81040        4.01200
H          6.61150        2.47380        0.74890
H          7.05110        3.50670       -2.09330
H          8.31540        3.25290       -0.81990
H          7.01480        4.46430       -0.56500
H          4.61250        2.77470       -1.60870
H          4.69620        3.79580       -0.11960
H          4.20820        2.10130        0.01540
H          5.50360        0.17240        3.01170
H          7.75110       -1.93090        2.84630
H          6.07520       -2.24890        2.20800
H          6.36000       -1.96320        3.96540
H          8.42070        0.39410        3.57890
H          7.08100        0.28980        4.79010
H          7.16240        1.68160        3.65630
H          8.26610       -0.62060       -1.78470
H          8.04670       -2.43480        0.71880
H          8.65810       -0.70380        0.70530
H          9.56400       -1.91410       -0.05470
H          7.54740       -3.58910       -1.42950
H          9.08920       -2.92170       -2.07220
H          7.56670       -2.67920       -2.99800
