36

N         -0.65900       -1.22800       -0.05100
C         -1.31910       -0.18590        0.52630
O         -2.57000       -0.39470        1.00730
C         -3.33750        0.54460        1.66920
C         -0.67590        1.06730        0.61860
C          0.61590        1.21890        0.11220
C          1.26390        0.13150       -0.46850
C          0.60600       -1.09560       -0.53510
Pd        -1.57560       -3.10440       -0.27260
Br        -0.63420       -3.83580        2.02680
C         -2.35710       -2.49720       -2.18130
C         -2.27450       -1.25510       -2.66240
N         -2.49230       -4.98070       -0.49410
C         -3.65180       -5.12830       -1.20750
N         -4.28340       -6.32900       -1.27160
C         -3.77500       -7.43020       -0.66120
O         -4.41970       -8.61950       -0.71470
C         -5.66600       -8.79080       -1.27970
C         -2.58500       -7.32390        0.04660
C         -1.96880       -6.07720        0.13270
H         -4.29830        0.08420        1.97670
H         -3.55260        1.40550        1.00060
H         -2.81190        0.89950        2.58370
H         -1.15980        1.92430        1.06980
H          1.11400        2.17810        0.16780
H          2.26400        0.23770       -0.86880
H          1.09310       -1.94530       -0.99420
H         -2.81870       -3.22080       -2.83660
H         -1.81240       -0.44770       -2.11690
H         -2.67400       -1.03740       -3.64870
H         -4.14730       -4.28690       -1.65500
H         -5.96170       -9.85610       -1.19200
H         -5.64990       -8.50550       -2.35200
H         -6.41050       -8.16830       -0.73730
H         -2.15320       -8.18680        0.53780
H         -1.04530       -6.02060        0.68110
