47

P          0.96000       -0.04650       -0.07900
O         -0.22130        1.04510        0.54080
C          0.18310        1.30180        1.89370
C         -0.52010        2.48330        2.53680
O          0.51090       -0.08410       -1.72690
C          0.53660        1.19240       -2.30410
C         -0.14690        1.08700       -3.66450
O          0.51760       -1.33590        0.97750
C         -0.89010       -1.56980        0.84040
C         -1.40820       -2.48580        1.93630
Pd         3.42000       -0.04650       -0.07900
Br         3.42000       -2.34770       -1.26750
C          3.42000        1.86380        0.90750
C          3.38980        3.01040        0.23350
C          5.57000       -0.04650       -0.07900
N          6.36950       -0.71900       -0.95990
C          6.07420       -1.35180       -2.24310
C          7.64090       -0.52380       -0.57590
C          7.64620        0.27610        0.52860
N          6.37070        0.60620        0.82350
C          6.05280        1.37350        2.03260
H          1.24780        1.55480        1.97060
H         -0.00660        0.42460        2.54870
H         -0.30450        3.41910        1.98260
H         -0.12460        2.60140        3.57470
H         -1.60930        2.29960        2.59950
H          1.58720        1.51990       -2.45130
H         -0.03650        1.93930       -1.71320
H          0.36960        0.33090       -4.29490
H         -0.12820        2.06550       -4.18640
H         -1.20600        0.77000       -3.53640
H         -1.13080       -1.99570       -0.15610
H         -1.51640       -0.66760        0.99750
H         -0.95050       -3.48840        1.85300
H         -2.51460       -2.57980        1.83660
H         -1.19480       -2.04670        2.93550
H          3.42600        1.88870        1.99190
H          3.37220        3.01700       -0.84890
H          3.38310        3.95010        0.77940
H          5.09470       -1.02060       -2.63380
H          6.22360       -2.44940       -2.19740
H          6.76500       -0.94110       -3.00670
H          8.51310       -0.90360       -1.08930
H          8.52260        0.60270        1.06720
H          6.96840        1.55090        2.63380
H          5.35890        0.78560        2.67180
H          5.67080        2.37200        1.76980
