56

N         -1.36190        0.06080        0.04060
C         -0.60170       -0.35370       -0.99740
C          0.79200       -0.40960       -0.89750
O          1.55650       -0.88330       -1.91480
C          1.03850       -1.33100       -3.11600
C          1.39220        0.01470        0.29110
C          0.59700        0.48530        1.34160
C         -0.79570        0.48470        1.20450
Pd        -3.33560       -0.07020       -0.21640
Br        -2.75140       -2.56000       -0.46590
C         -3.57040        2.02000        0.01900
C         -2.56070        2.86470        0.22040
P         -5.74670       -0.20810       -0.45820
O         -6.82170        1.05900       -0.80780
C         -6.22200        1.63310       -2.00720
C         -6.28610        0.74830       -3.27560
C         -6.86530        2.93420       -2.41850
O         -6.26990       -1.21350       -1.76410
C         -5.67680       -2.45370       -1.92450
C         -6.26390       -3.25210       -0.83080
C         -6.09980       -3.14560       -3.23150
O         -6.62540       -0.84420        0.90780
C         -6.31980       -0.36230        2.17290
C         -6.81360        1.06330        2.26870
C         -7.08520       -1.20760        3.21300
H         -1.10420       -0.61520       -1.91540
H          1.84420       -1.74000       -3.75430
H          0.54790       -0.48480       -3.64300
H          0.29220       -2.13830       -2.93440
H          2.46930       -0.02500        0.39990
H          1.05680        0.82670        2.26140
H         -1.41630        0.77890        2.04180
H         -4.54270        2.48940       -0.05960
H         -1.54750        2.54990        0.31560
H         -2.72630        3.92930        0.28220
H         -5.14540        1.85320       -1.88730
H         -7.33390        0.43330       -3.46510
H         -5.55910       -0.07010       -3.30620
H         -5.80550        1.16870       -4.14800
H         -7.92430        2.74910       -2.68240
H         -6.33620        3.30010       -3.33410
H         -6.76710        3.69500       -1.62800
H         -4.59370       -2.36050       -2.01040
H         -7.37710       -3.22130       -0.89930
H         -6.03350       -2.73290        0.05510
H         -5.79300       -4.22150       -0.73730
H         -7.20580       -3.21490       -3.28260
H         -5.69810       -4.18740       -3.22590
H         -5.73030       -2.65120       -4.15590
H         -5.24060       -0.47420        2.39050
H         -7.89160        1.11040        1.97580
H         -6.21100        1.71390        1.61870
H         -6.66570        1.43890        3.28760
H         -8.18350       -1.17850        3.02180
H         -6.89650       -0.78580        4.22290
H         -6.75750       -2.27190        3.21290
