71

P         -0.09400       -2.58900       -0.00200
N         -0.08650       -1.39350       -1.38720
C         -1.09070       -0.39310       -1.73180
C          1.16910       -0.74130       -1.42490
O         -0.69660       -1.62040        1.20860
C         -1.87170       -1.93220        1.81760
C         -1.88330       -1.86450        3.21860
C         -3.02020       -2.21000        3.95170
C         -4.17910       -2.60740        3.29850
C         -4.21350       -2.63950        1.91300
C         -3.07810       -2.31260        1.13900
C         -3.27940       -2.36400       -0.33730
C         -4.45580       -1.74330       -0.83350
C         -4.74220       -1.70210       -2.19030
C         -3.88230       -2.31820       -3.09080
C         -2.72750       -2.98490       -2.63000
C         -2.38700       -2.99750       -1.24740
O         -1.20260       -3.56090       -0.82870
Pd         1.42500       -4.05750        1.25810
Br        -0.59490       -5.04130        2.54650
C          3.10180       -3.24080        0.18860
C          4.62100       -1.67020        1.54590
P          2.94400       -5.52600        2.51820
N          3.44400       -6.71360        3.73460
C          2.34000       -7.60050        4.07690
C          4.74830       -7.36600        3.58500
O          3.97530       -6.22000        1.20220
C          5.18580       -5.91180        0.44270
C          5.85320       -6.88720       -0.34740
C          6.87480       -6.53870       -1.30710
C          7.28470       -5.21950       -1.50050
C          6.77420       -4.29280       -0.68880
C          5.80990       -4.65930        0.24510
C          5.22720       -3.61450        0.69290
C          4.93100       -2.18300       -0.63480
C          3.55280       -0.98910       -0.30930
C          2.43870       -1.18860        1.16800
C          2.67850       -2.48820        2.36590
C          4.04420       -3.67890        2.22150
O          3.99930       -4.53570        3.11140
H         -1.78880       -0.80600       -2.45070
H         -0.66500        0.38260       -2.42270
H         -1.49420        0.09980       -0.84090
H          1.85580       -1.58230       -1.59430
H          1.20980       -0.04930       -0.54770
H          1.40060       -0.09970       -2.29370
H         -0.98970       -1.56370        3.74800
H         -3.00320       -2.17820        5.03160
H         -5.06010       -2.88870        3.86130
H         -5.13880       -2.94990        1.43840
H         -5.15070       -1.24500       -0.16430
H         -5.63140       -1.18060       -2.53670
H         -4.11120       -2.25220       -4.14930
H         -2.06860       -3.41810       -3.36830
H          3.12630       -3.56510       -0.86230
H          4.57620       -1.35820        2.60250
H          5.56300       -1.13760        1.21370
H          1.44030       -6.98900        4.31940
H          2.58670       -8.16970        4.99790
H          2.11090       -8.28310        3.23560
H          5.54940       -6.60320        3.47910
H          4.75400       -8.06130        2.72280
H          4.97850       -7.93970        4.50990
H          5.54880       -7.91100       -0.27610
H          7.33990       -7.25790       -1.94590
H          7.97740       -4.85910       -2.25800
H          7.09530       -3.25320       -0.85630
H          5.45720       -1.99690       -1.56290
H          3.44750       -0.06160       -0.86510
H          1.73170       -0.43440        1.48030
H          2.06430       -2.52540        3.26980
