120

C          1.02400       -0.65300       -0.05500
N          0.96960        0.74110       -0.27310
C          1.96190        1.91740       -0.28440
C          1.88490        3.29630       -0.82000
C          0.77500        4.01410       -1.58260
C          0.48460        3.36940       -2.92270
C         -0.37150        4.41020       -0.63590
C          2.96040        4.24650       -0.64470
C          4.06390        3.98920        0.10560
C          4.12740        2.79790        0.72950
C          3.13690        1.82620        0.52170
C          3.28540        0.66270        1.26000
C          4.70470        0.14890        1.08700
C          2.18740        0.72820        2.41510
C         -0.44160        1.08350       -0.28950
C         -1.17560       -0.19230       -0.54950
N         -0.38310       -1.22320        0.06250
C         -1.03750       -2.55370        0.37700
C         -0.43910       -3.79500        0.05020
C          0.80900       -3.83140       -0.65770
C          1.70160       -4.24390        0.47080
C          0.78920       -4.68800       -1.93440
C         -0.92400       -5.05600        0.48030
C         -2.03940       -5.16530        1.22660
C         -2.75780       -4.03460        1.47550
C         -2.33680       -2.73240        1.05390
C         -3.35460       -1.63380        1.31980
C         -4.27480       -1.59320        0.07630
C         -4.25790       -1.83520        2.55740
Pd         2.78020       -1.86970       -0.29550
Br         2.34350       -1.28150       -2.68580
C          3.14050       -2.14910        1.95450
C          3.55790       -3.08090        2.80560
P          4.78960       -3.26190       -0.57060
C          6.57410       -2.87800        0.44490
C          6.41200       -2.77120        1.97840
C          7.79810       -3.84080        0.28940
C          7.23640       -1.46310        0.05670
C          4.74960       -5.28580       -0.14850
C          3.74170       -6.04090       -1.08370
C          6.03470       -6.06720       -0.56600
C          4.47030       -5.84430        1.28390
C          5.36070       -3.15220       -2.36280
C          6.69980       -2.86450       -2.68260
C          7.19540       -2.70110       -3.95860
C          6.38270       -2.86030       -5.08160
N          6.91730       -2.63830       -6.41890
C          8.25580       -2.09440       -6.68260
C          6.14350       -2.88250       -7.62470
C          5.04290       -3.26610       -4.80700
C          4.55010       -3.40840       -3.47840
H          1.10390        5.03490       -1.89770
H          0.17140        2.32150       -2.84880
H          1.43060        3.38200       -3.51120
H         -0.26990        3.97470       -3.46320
H         -0.96260        3.59600       -0.21430
H         -1.05830        5.11490       -1.14630
H          0.06100        4.95470        0.23890
H          2.96210        5.24980       -1.04280
H          4.84610        4.71640        0.26810
H          4.98030        2.63900        1.37280
H          3.01530       -0.03140        0.53370
H          5.43220        0.51340        1.82650
H          5.03030        0.47050        0.05030
H          4.78280       -0.91930        0.90660
H          1.33010        1.38760        2.15870
H          1.55480       -0.17790        2.56010
H          2.60330        1.08880        3.36710
H         -0.73810        1.74210       -1.09630
H         -0.70340        1.49310        0.71350
H         -1.15150       -0.40800       -1.64390
H         -2.21480       -0.04420       -0.27240
H          1.06230       -2.84840       -1.00860
H          1.57060       -5.28380        0.80930
H          1.49870       -3.63460        1.36120
H          2.66810       -4.07960        0.16260
H          0.56490       -5.75450       -1.73470
H          1.76560       -4.62760       -2.44380
H          0.03230       -4.29150       -2.64220
H         -0.39410       -5.97960        0.27100
H         -2.35720       -6.13960        1.58130
H         -3.66360       -4.23700        2.01150
H         -2.82220       -0.69720        1.54660
H         -4.80840       -2.56530       -0.03780
H         -3.71520       -1.45120       -0.87190
H         -5.03120       -0.78900        0.16670
H         -4.95080       -2.69750        2.45780
H         -4.92100       -0.95570        2.67770
H         -3.64160       -1.95610        3.47140
H          3.09120       -1.32900        2.55190
H          3.77780       -4.04710        2.60650
H          3.71580       -2.82040        3.86830
H          6.09020       -3.69640        2.43690
H          5.79060       -1.94390        2.32930
H          7.39700       -2.54180        2.45440
H          7.80330       -4.63880        1.04620
H          8.73320       -3.34320        0.63530
H          8.05910       -4.21870       -0.71400
H          6.72320       -0.56950        0.24330
H          7.58820       -1.17970       -0.94240
H          8.13730       -1.26850        0.67560
H          3.93300       -5.82830       -2.15180
H          2.69110       -5.93500       -0.89160
H          3.79430       -7.14850       -0.95580
H          6.34250       -5.85780       -1.60750
H          5.87910       -7.17160       -0.49800
H          6.85480       -6.06180        0.12850
H          3.44610       -5.71540        1.64400
H          5.22960       -5.54780        2.02570
H          4.50560       -6.95360        1.31260
H          7.45530       -2.77200       -1.99060
H          8.23830       -2.44730       -4.00590
H          8.86560       -1.84000       -5.81130
H          8.16440       -1.13970       -7.25460
H          8.84460       -2.81520       -7.29600
H          5.13990       -3.28790       -7.45800
H          6.68060       -3.60420       -8.27710
H          6.02930       -1.92530       -8.16860
H          4.32890       -3.46410       -5.58270
H          3.53180       -3.70900       -3.33820
