35

N          1.02890       -0.09470       -0.01420
C          0.74930        0.45220        1.33120
C          0.48440        0.92780       -0.91970
C          0.40130       -1.41070       -0.14310
C         -0.31090       -1.79550       -1.30440
C         -1.00250       -3.01320       -1.35860
C         -1.00980       -3.87410       -0.26160
C         -0.30540       -3.53660        0.88620
C          0.39710       -2.33480        0.94580
Pd         3.12890       -0.09470       -0.01420
Br         3.12890        2.45430        0.44530
C          3.12890       -2.21060       -0.39570
C          3.16670       -2.71690       -1.62590
O          5.17890       -0.09470       -0.01420
C          5.95100       -1.14670       -0.21170
N          7.25960       -0.83940       -0.14660
C          7.27280        0.47850        0.11860
C          5.97540        0.93410        0.19170
H         -0.33800        0.43410        1.56540
H          1.06490        1.48700        1.50270
H          1.30430       -0.11270        2.10700
H         -0.62750        0.97760       -0.82910
H          0.75370        0.70500       -1.96980
H          0.84950        1.95010       -0.72110
H         -0.37590       -1.16720       -2.17700
H         -1.55820       -3.28010       -2.24770
H         -1.57000       -4.80180       -0.29470
H         -0.31510       -4.19970        1.74250
H          0.90610       -2.14080        1.87420
H          3.08760       -2.88210        0.45570
H          3.20200       -2.06680       -2.49100
H          3.15820       -3.79500       -1.76050
H          5.61340       -2.15480       -0.40360
H          8.16760        1.06790        0.25210
H          5.69770        1.95150        0.39360
