41

P          0.93890       -0.05360        0.05820
C         -0.22140       -1.47700        0.04000
C          0.46350        0.47560        1.71320
C          0.77170       -0.30890        2.83600
C          0.26170        0.03490        4.09540
C         -0.55140        1.16480        4.23650
C         -0.85020        1.95550        3.12310
C         -0.35050        1.60930        1.86880
C          0.26420        0.87100       -1.36850
C         -1.13170        0.86390       -1.61160
C         -1.67420        1.47440       -2.74070
C         -0.84300        2.13400       -3.63800
C          0.53510        2.17250       -3.40810
C          1.08940        1.53040       -2.28950
Pd         3.39890       -0.05360        0.05820
Br         3.39890        2.53630        0.05210
C          3.39890       -2.20360        0.06330
C          4.32480       -3.17260        0.05790
C          5.54890       -0.05360        0.05820
N          6.27180        1.08660        0.05800
C          7.55300        0.67440        0.05260
C          7.56830       -0.69750        0.05050
O          6.32680       -1.10490        0.05540
H         -1.27330       -1.22680        0.25370
H          0.09110       -2.19500        0.82750
H         -0.12930       -2.00600       -0.93270
H          1.37040       -1.20730        2.73800
H          0.47740       -0.58420        4.95580
H         -0.96170        1.42050        5.20450
H         -1.49180        2.82140        3.23040
H         -0.61770        2.21510        1.00680
H         -1.82990        0.36960       -0.96040
H         -2.74290        1.42410       -2.91930
H         -1.26930        2.60820       -4.51220
H          1.17560        2.68760       -4.10980
H          2.15760        1.54730       -2.16050
H          2.38480       -2.58370        0.06950
H          5.38600       -3.06750        0.04840
H          3.98210       -4.20380        0.06120
H          8.41630        1.32480        0.04930
H          8.43330       -1.34770        0.04450
