58

P          0.99420        0.09900        0.01280
C         -0.04730        1.67860        0.03280
C         -1.56220        1.79590       -0.22530
C         -1.83550        3.23870        0.19370
C         -1.11140        3.32310        1.51770
C          0.20960        2.58830        1.27020
C          0.58300       -0.68000       -1.61220
C         -0.86680       -1.18390       -1.73680
C         -1.03470       -1.32880       -3.23480
C         -0.44810       -0.01290       -3.71940
C          0.81660        0.17220       -2.87320
C          0.45090       -0.61150        1.70100
C         -1.07970       -0.76240        1.88010
C         -1.23740       -1.72930        3.04850
C         -0.23950       -2.78470        2.66310
C          0.97410       -1.98680        2.18800
Pd         3.45420        0.09900        0.01280
Br         3.45420       -2.49070        0.05200
C          3.45420        2.24880       -0.01980
C          3.44980        2.86460       -1.19830
N          5.55420        0.09900        0.01280
C          6.39210       -0.95790        0.06600
O          7.65010       -0.57650        0.06090
C          7.66410        0.73420        0.00020
C          6.36140        1.17590       -0.02870
H          0.35020        2.27380       -0.81720
H         -2.18110        1.14510        0.40730
H         -1.86450        1.65330       -1.28060
H         -2.91270        3.49430        0.26900
H         -1.34780        3.93370       -0.52540
H         -1.71180        2.71950        2.23840
H         -0.99520        4.33920        1.95140
H          0.47450        2.11270        2.22890
H          1.02830        3.29550        1.02000
H          1.17990       -1.61400       -1.72350
H         -1.59570       -0.43340       -1.40430
H         -1.08230       -2.10850       -1.15980
H         -2.09450       -1.47770       -3.54690
H         -0.41840       -2.17430       -3.59980
H         -1.17370        0.77960       -3.42140
H         -0.29350        0.08320       -4.81610
H          0.98870        1.25670       -2.70440
H          1.70440       -0.24490       -3.39350
H          0.76040        0.07610        2.51130
H         -1.51600       -1.25780        0.98500
H         -1.61910        0.16720        2.11280
H         -2.26670       -2.12330        3.16960
H         -0.91600       -1.22990        3.99200
H         -0.66670       -3.32430        1.78530
H         -0.01720       -3.54320        3.44580
H          1.42910       -2.63900        1.45700
H          1.65350       -1.80600        3.05550
H          3.46030        2.81620        0.90460
H          3.44810        2.27150       -2.10690
H          3.45220        3.94690       -1.25970
H          6.09480       -1.99110        0.12380
H          8.55600        1.34580       -0.02090
H          6.04670        2.20660       -0.07950
