67

P          1.06720       -0.06050       -0.04260
C         -0.08610        1.26700        0.75570
C          0.18730        1.36200        2.29730
C          1.53140        2.05400        2.60450
C          1.47610        3.51300        2.14330
C          1.13310        3.58420        0.65940
C         -0.11300        2.76090        0.29220
C          0.96140       -0.27910       -2.07500
C         -0.36430       -0.51770       -2.91210
C         -1.20090        0.76790       -3.07970
C         -0.38000        1.84520       -3.82250
C          1.02290        2.01140       -3.21550
C          1.70260        0.63730       -3.08860
C          0.26660       -1.56030        0.96350
C         -1.31470       -1.63850        0.98940
C         -1.88860       -1.97820       -0.37930
C         -1.32480       -3.32720       -0.91660
C          0.19380       -3.45970       -0.78780
C          0.64590       -3.03210        0.59860
Pd         3.52720       -0.06050       -0.04260
Br         3.52720        2.15040       -1.39160
C          3.52720       -1.89590        1.07720
C          4.03030       -3.02460        0.56360
O          5.57720       -0.06050       -0.04260
C          6.38320       -0.94040        0.53140
N          7.68310       -0.62190        0.36680
C          7.65910        0.52340       -0.33650
C          6.34430        0.85800       -0.58830
H         -1.11600        0.95400        0.55080
H          0.15390        0.39210        2.80630
H         -0.61450        1.96110        2.78720
H          2.36930        1.51360        2.10630
H          1.72890        2.04820        3.69880
H          2.45270        4.01690        2.33090
H          0.69800        4.05450        2.72180
H          1.97450        3.19250        0.14320
H          1.02360        4.64670        0.34570
H         -0.38890        2.85580       -0.76480
H         -0.95030        3.26400        0.82790
H          1.55730       -1.19260       -2.22090
H         -0.93600       -1.41290       -2.69080
H         -0.10500       -0.83300       -3.95320
H         -1.53840        1.12840       -2.09190
H         -2.10070        0.55730       -3.70650
H         -0.92760        2.80970       -3.86070
H         -0.23100        1.50810       -4.87380
H          0.97230        2.49850       -2.23580
H          1.60850        2.69320       -3.87410
H          2.77690        0.54370       -2.96440
H          1.70610        0.22230       -4.12170
H          0.58550       -1.44950        2.01210
H         -1.81770       -0.74850        1.39250
H         -1.64970       -2.44760        1.67570
H         -1.68050       -1.07010       -0.93060
H         -2.99440       -2.05160       -0.38020
H         -1.61870       -3.52090       -1.97330
H         -1.76940       -4.13700       -0.29830
H          0.71480       -2.88470       -1.54220
H          0.48760       -4.52310       -0.97510
H          1.67300       -3.28120        0.70780
H          0.16210       -3.71740        1.33250
H          3.10150       -1.89520        2.07560
H          4.44930       -3.03670       -0.43540
H          4.01670       -3.93790        1.15180
H          6.09840       -1.80480        1.09210
H          8.53510        1.07880       -0.63260
H          6.05810        1.74040       -1.12170
