47

N          1.02400       -0.65300       -0.05500
C          0.69730        0.17030        0.89330
C          1.49730        0.53290        2.11930
C          2.85010        0.18310        2.28010
C          3.54970        0.56260        3.44450
C          2.91370        1.26170        4.46470
C          1.58050        1.62040        4.32070
C          0.88420        1.27230        3.16220
N         -0.56680        0.74950        0.64610
C         -1.02440        0.33790       -0.64400
C         -0.04290       -0.77150       -1.02060
Pd         2.73940       -1.84140       -0.28990
Br         1.56680       -3.78150        0.96290
C          3.71270       -0.23100       -1.32990
C          3.15480        0.95940       -1.55780
N          4.45470       -3.02990       -0.52480
C          5.60480       -3.13370        0.25690
N          5.76930       -2.49380        1.52580
C          4.73850       -2.62920        2.51220
C          7.05920       -1.95060        1.96390
C          6.69070       -3.90050       -0.22840
C          6.58940       -4.60170       -1.41720
C          5.42720       -4.51530       -2.16080
C          4.39470       -3.69130       -1.71870
H          3.36300       -0.36770        1.50700
H          4.59330        0.32080        3.58350
H          3.45610        1.52870        5.36330
H          1.08630        2.17390        5.10990
H         -0.14540        1.58280        3.11560
H         -1.01690        1.49960        1.18610
H         -0.91010        1.21450       -1.32060
H         -2.07590       -0.01620       -0.63790
H          0.31060       -0.64690       -2.06560
H         -0.50000       -1.77590       -0.88400
H          4.72720       -0.40300       -1.67460
H          2.15540        1.20020       -1.22870
H          3.71550        1.72620       -2.08180
H          3.80610       -2.99300        2.07390
H          4.56580       -1.69560        3.03000
H          5.08110       -3.35750        3.27490
H          7.84280       -2.73010        1.99980
H          6.99380       -1.53560        2.99380
H          7.38270       -1.12490        1.29260
H          7.61720       -3.99750        0.31410
H          7.41420       -5.21630       -1.75480
H          5.33220       -5.07740       -3.08040
H          3.49530       -3.61750       -2.31460
