79

P          0.97690       -0.08010       -0.05530
C          0.11320        0.72600        1.46850
C          0.35500       -0.01040        2.85790
C          1.61330        0.34390        3.64790
C          1.60310        1.82150        3.97960
C          1.59080        2.58310        2.65550
C          0.35560        2.23600        1.76710
C          1.01340        1.00870       -1.65560
C          1.67510        0.31900       -2.89060
C          0.72790       -0.61990       -3.61210
C         -0.59600        0.06710       -4.03290
C         -1.25500        0.83260       -2.86970
C         -0.25380        1.74270       -2.15950
C         -0.45740       -1.54860       -0.08100
C         -0.57830       -2.68650       -1.16920
C          0.61760       -3.63830       -1.13680
C          0.70690       -4.33600        0.24270
C          0.51570       -3.36840        1.43830
C         -0.68650       -2.45720        1.20390
Pd         3.43690       -0.08010       -0.05530
Br         3.43690        2.50620        0.08320
C          3.43690       -2.22700       -0.17030
C          3.71300       -2.93540        0.92160
P          5.89690       -0.08010       -0.05530
N          7.25550        0.84860       -0.78480
C          6.78380        1.83680       -1.79760
C          8.47970        0.15350       -1.21660
O          6.28170        0.68640        1.45020
C          6.21770        2.09720        1.48070
O          6.26280       -1.68330       -0.53290
C          5.96360       -1.84400       -1.91430
H         -0.96130        0.65680        1.20310
H          0.49170       -1.08010        2.81380
H         -0.50790        0.22400        3.52220
H          2.51760        0.05750        3.06160
H          1.63040       -0.23340        4.59780
H          2.53410        2.07240        4.54160
H          0.73290        2.09080        4.60610
H          2.51470        2.24570        2.25910
H          1.63380        3.66600        2.85370
H          0.35960        2.81520        0.82270
H         -0.51860        2.58770        2.36180
H          1.66540        1.83050       -1.43690
H          2.59690       -0.22710       -2.60120
H          1.95930        1.08200       -3.65030
H          0.60150       -1.40470       -2.90650
H          1.17830       -1.11520       -4.49690
H         -1.31860       -0.66640       -4.44450
H         -0.34760        0.78030       -4.84920
H         -1.68900        0.13840       -2.13530
H         -2.08400        1.45590       -3.29010
H         -0.72390        2.34420       -1.36390
H          0.09080        2.47750       -2.94480
H         -1.40810       -0.99950       -0.19660
H         -1.46450       -3.32680       -1.00510
H         -0.88250       -2.35460       -2.16870
H          1.45840       -3.02410       -1.40080
H          0.55660       -4.42380       -1.92370
H          1.65010       -4.91840        0.33550
H         -0.11880       -5.07090        0.27560
H          1.38220       -2.73190        1.60610
H          0.36780       -3.98090        2.36240
H         -1.11200       -1.88040        2.05370
H         -1.58210       -3.11750        1.07660
H          3.39290       -2.72120       -1.12320
H          3.84700       -2.42910        1.87130
H          3.81470       -4.01360        0.86840
H          5.73590        2.15410       -1.61820
H          6.82740        1.48280       -2.86860
H          7.39750        2.74380       -1.71670
H          8.40260       -0.94780       -1.24780
H          9.27990        0.42280       -0.51020
H          8.82080        0.47610       -2.23460
H          7.00000        2.48860        2.16580
H          5.25710        2.36830        1.94350
H          6.39650        2.64510        0.53940
H          6.89340       -1.99240       -2.49540
H          5.38030       -1.01450       -2.38230
H          5.36930       -2.76720       -2.06640
