81

P          1.09270       -0.03700        0.00550
C          0.43410        1.19060       -1.35560
C         -1.01240        1.46730       -1.93760
C         -1.86160        2.23790       -0.96740
C         -1.30030        3.66150       -0.82150
C          0.18230        3.66840       -0.44150
C          1.00170        2.64760       -1.19130
C          0.55180       -1.72280       -0.75800
C          0.72420       -3.00570        0.11630
C         -0.36690       -3.21760        1.21250
C         -1.81920       -3.11640        0.66380
C         -1.98370       -1.83180       -0.12520
C         -0.92460       -1.82520       -1.24250
C          0.40110        0.43620        1.84220
C          0.80220       -0.38080        3.15000
C          1.93200        0.19240        4.08550
C          1.91810        1.70410        4.26850
C          1.62550        2.40860        2.93250
C          0.26860        1.86230        2.44630
Pd         3.55270       -0.03700        0.00550
Br         3.55270       -1.58920        2.07880
C          3.55270        1.25150       -1.71560
C          3.82560        2.56290       -1.85240
P          6.01270       -0.03700        0.00550
C          7.19490       -0.64080        1.27300
C          6.14380       -1.61640       -0.89730
C          7.00210        1.39770       -0.71480
C          6.59870        2.64430        0.10880
C          8.53450        1.27180       -0.55710
C          6.79970        1.54840       -2.24410
H          0.96240        0.77510       -2.21920
H         -1.59830        0.68670       -2.37620
H         -0.88600        2.09800       -2.85400
H         -1.91530        1.67650       -0.00660
H         -2.89250        2.33100       -1.38110
H         -1.88440        4.23380       -0.07290
H         -1.38950        4.16450       -1.80500
H          0.34760        3.45880        0.56740
H          0.62040        4.67790       -0.52180
H          1.90850        2.61050       -0.58990
H          1.15470        3.06940       -2.21280
H          1.19000       -1.82600       -1.65960
H          1.72840       -3.08330        0.54640
H          0.60220       -3.87810       -0.57120
H         -0.34250       -2.45660        1.97080
H         -0.25850       -4.20740        1.69630
H         -2.55120       -3.15350        1.51330
H         -2.03660       -3.97680       -0.00030
H         -1.90380       -0.93800        0.51560
H         -3.00830       -1.80180       -0.54850
H         -1.11450       -1.09880       -1.98110
H         -1.07030       -2.76000       -1.82470
H         -0.65910        0.19320        1.69210
H          1.00380       -1.44150        3.00040
H         -0.11240       -0.35010        3.79550
H          2.92380        0.04420        3.72050
H          1.88810       -0.31770        5.07310
H          2.89310        2.03050        4.70290
H          1.12900        1.98380        4.99890
H          2.41610        2.23510        2.16500
H          1.57270        3.49270        3.14800
H         -0.45230        2.49850        1.95570
H         -0.38430        1.83430        3.35260
H          3.30600        0.72190       -2.63010
H          4.05800        3.21710       -1.03550
H          3.77830        3.01140       -2.84040
H          6.79480       -1.57200        1.72720
H          7.24890        0.11360        2.08710
H          8.20640       -0.86440        0.88810
H          5.67270       -2.44710       -0.33850
H          7.21620       -1.84860       -1.08470
H          5.65790       -1.50200       -1.88750
H          6.98730        2.56080        1.14780
H          5.51860        2.72770        0.26330
H          6.99770        3.58420       -0.32830
H          8.84830        1.24470        0.50650
H          9.04280        2.16200       -0.99250
H          8.91740        0.36710       -1.07320
H          5.79330        1.51070       -2.62600
H          7.29780        0.71040       -2.77370
H          7.25390        2.50070       -2.59830
