38

N          0.00000        1.11900       -0.00200
C         -1.03760        1.05720        1.03760
N          1.11670        0.43670        0.42100
C          1.25180       -0.67230       -0.21390
C          0.28920       -0.77760       -1.20210
C         -0.44380        0.37990       -1.12680
Pd        -0.00000        3.21900       -0.01160
Br        -1.73940        3.21020       -1.93060
C          1.44390        3.22630        1.58130
C          1.51280        4.12130        2.57090
N         -0.00000        5.31900       -0.02130
C          1.10890        6.06610        0.33850
N          2.43280        5.48760        0.24730
C          2.69220        4.41890       -0.71340
C          3.62250        6.09570        0.83230
C          1.00450        7.47540        0.42210
C         -0.18510        8.10560        0.10270
C         -1.25070        7.35440       -0.35960
C         -1.12770        5.96690       -0.45470
H         -1.32440        2.08350        1.34640
H         -1.97860        0.55440        0.71120
H         -0.68950        0.52910        1.95370
H          2.01810       -1.40130       -0.00170
H          0.14000       -1.58440       -1.90890
H         -1.28200        0.60690       -1.76610
H          2.14120        2.39790        1.62240
H          0.82900        4.95630        2.63770
H          2.27540        4.01080        3.33670
H          1.76770        4.04960       -1.21200
H          3.21470        3.56380       -0.24000
H          3.35090        4.79070       -1.52810
H          3.38970        6.91800        1.52570
H          4.28430        6.47310        0.02010
H          4.17960        5.32700        1.40640
H          1.85140        8.11110        0.63620
H         -0.26550        9.18410        0.15420
H         -2.18180        7.83830       -0.63260
H         -2.00990        5.43950       -0.74720
