55

P          0.95030        0.06100        0.06170
C         -0.14760       -1.26890        0.73260
C         -1.53950       -1.17210        0.91580
C         -2.25600       -2.26110        1.46300
C         -1.60240       -3.44750        1.82740
C         -0.23500       -3.55070        1.65110
C          0.46010       -2.47680        1.12140
C          0.44440        1.38620        1.16720
C          0.85950        1.38520        2.50830
C          0.37420        2.35530        3.39310
C         -0.53490        3.31860        2.94550
C         -0.95000        3.32060        1.61070
C         -0.45970        2.35910        0.72150
C          0.37950        0.07020       -1.67470
C         -0.51450       -0.91330       -2.16510
C         -1.00370       -0.83370       -3.46590
C         -0.60580        0.20790       -4.28620
C          0.28230        1.17190       -3.78800
O          0.64870        2.07700       -4.50380
N          0.75670        1.07980       -2.50410
Pd         3.41030        0.06100        0.06170
Br         3.21670        2.54520       -0.10500
C          3.65030       -1.89350        0.75880
C          3.65210       -3.04360        0.08510
N          5.51030        0.06100        0.06170
C          6.23900       -1.09860       -0.06700
N          7.58690       -1.10510        0.00250
C          8.29150        0.01720        0.25260
O          9.63950       -0.03690        0.36680
C         10.36520       -1.18480        0.10740
C          7.60650        1.22000        0.39350
C          6.21040        1.22490        0.25210
H         -2.06020       -0.26770        0.64840
H         -3.32270       -2.19630        1.61430
H         -2.13950       -4.28720        2.24640
H          0.29760       -4.45840        1.92490
H          1.47910       -2.63090        1.02380
H          1.54060        0.62510        2.87150
H          0.68740        2.35000        4.42930
H         -0.92490        4.05660        3.63460
H         -1.66620        4.05710        1.26950
H         -0.81290        2.35420       -0.30140
H         -0.86710       -1.73680       -1.57540
H         -1.70410       -1.57570       -3.82830
H         -0.99370        0.27740       -5.29740
H          1.40510        1.82000       -2.16420
H          3.88510       -1.93410        1.82250
H          3.51360       -3.07410       -0.98110
H          3.85980       -3.95500        0.64760
H          5.79780       -2.03460       -0.30660
H         11.44050       -0.99940        0.29950
H         10.23700       -1.47560       -0.95820
H         10.02610       -2.02360        0.75590
H          8.14160        2.13230        0.62410
H          5.71490        2.16130        0.40970
