82

P          1.03120       -0.09390       -0.01470
C          0.23440        1.51090       -0.25570
C         -1.13070        1.78770       -0.42680
C         -1.55080        3.11670       -0.59740
C         -0.62360        4.17360       -0.55810
C          0.72370        3.90260       -0.34860
C          1.14000        2.58400       -0.20330
C          0.78850       -0.80990       -1.67430
C          1.72110       -1.77730       -2.07140
C          1.54990       -2.51850       -3.24390
C          0.41810       -2.32080       -4.03210
C         -0.53980       -1.38510       -3.64350
C         -0.36500       -0.64100       -2.47070
C          0.27520       -0.83960        1.44890
C         -0.39590       -2.06110        1.25690
C         -0.92400       -2.74440        2.33540
C         -0.80630       -2.22090        3.63350
C         -0.16110       -0.98930        3.82500
C          0.36820       -0.28660        2.73160
Pd         3.49120       -0.09390       -0.01470
Br         3.49120        0.94470       -2.38740
C          3.49120       -0.95600        1.95490
C          4.55700       -1.18650        2.72650
C          5.64120       -0.09390       -0.01470
N          6.50090        0.93470       -0.11110
C          6.06560        2.34690       -0.21310
C          7.18100        3.43040       -0.23010
C          6.53100        4.82990       -0.42140
C          5.49870        5.13450        0.68060
C          4.44930        4.02570        0.74900
C          5.11510        2.66730        0.96140
C          7.72900        0.36130        0.00990
C          7.56770       -1.03580        0.08860
N          6.24200       -1.29740        0.06790
C          5.39910       -2.46010       -0.33700
C          5.40110       -2.49700       -1.88540
C          6.46660       -3.43260       -2.44800
C          6.13090       -4.84890       -1.98560
C          6.30370       -4.93060       -0.45920
C          5.42140       -3.89610        0.27290
H         -1.86490        0.99270       -0.43230
H         -2.59570        3.34260       -0.75620
H         -0.94570        5.19540       -0.68700
H          1.45000        4.70780       -0.29890
H          2.19320        2.39150       -0.03300
H          2.57210       -1.97370       -1.44550
H          2.28150       -3.26420       -3.52730
H          0.27150       -2.90800       -4.92990
H         -1.43440       -1.25400       -4.23930
H         -1.15880        0.02370       -2.20940
H         -0.47720       -2.49780        0.27150
H         -1.41950       -3.70050        2.19450
H         -1.19360       -2.77020        4.47830
H         -0.05840       -0.59250        4.82490
H          0.88320        0.64980        2.89120
H          2.56520       -1.26380        2.38300
H          5.56520       -0.93690        2.44140
H          4.41080       -1.64760        3.70020
H          5.51160        2.43560       -1.16320
H          7.89820        3.26130       -1.06210
H          7.75050        3.42240        0.72750
H          6.01700        4.85530       -1.40710
H          7.30000        5.63290       -0.41840
H          4.98850        6.09980        0.47470
H          6.00900        5.21110        1.66360
H          3.87570        4.00170       -0.20500
H          3.73540        4.22700        1.58110
H          4.31610        1.90570        1.02780
H          5.68300        2.65220        1.91810
H          8.67040        0.89480       -0.00250
H          8.35460       -1.78040        0.08210
H          4.37790       -2.14160       -0.06880
H          5.53950       -1.47300       -2.29870
H          4.42690       -2.86230       -2.25760
H          7.49040       -3.14690       -2.11790
H          6.42850       -3.38290       -3.55660
H          6.79470       -5.58540       -2.48500
H          5.08340       -5.09290       -2.28950
H          7.36900       -4.77710       -0.20920
H          6.00690       -5.95690       -0.13500
H          5.54360       -3.91500        1.37550
H          4.39350       -4.29190        0.08020
