51

P          1.00800       -0.01740       -0.09820
F         -0.64840        0.16830        0.05520
F          0.99140        0.93350       -1.47580
F          0.80660       -1.67850       -0.10960
Pt         3.46800       -0.01740       -0.09820
Br         3.17740       -2.02970       -1.51020
C          3.11350        1.48350        1.29510
C          2.65710        1.16300        2.50670
P          5.92800       -0.01740       -0.09820
C          6.57660       -1.57730        0.87330
C          6.21140       -2.91510        0.20390
C          8.07910       -1.65550        1.21730
C          5.80680       -1.64450        2.22130
C          6.45520       -0.39400       -1.95360
C          5.84840        0.75970       -2.78200
C          7.99040       -0.30870       -2.11450
C          6.08040       -1.66730       -2.78420
C          6.54540        1.57450        0.84650
C          6.20740        1.65980        2.35230
C          8.08670        1.78070        0.77760
C          5.98550        2.84950        0.14530
H          3.19030        2.53260        1.05470
H          2.51160        0.12350        2.77620
H          2.41970        1.94290        3.22380
H          6.88670       -3.15370       -0.61750
H          5.14560       -2.97050       -0.05780
H          6.38600       -3.77540        0.88910
H          8.74220       -1.62920        0.33980
H          8.30130       -2.61630        1.73220
H          8.37110       -0.89170        1.95960
H          4.70800       -1.57780        2.06190
H          6.09110       -0.89080        2.95130
H          6.01380       -2.59630        2.76470
H          6.21870        1.73950       -2.46020
H          4.73960        0.75090       -2.70380
H          6.11810        0.69250       -3.85930
H          8.40670        0.62430       -1.73340
H          8.28790       -0.31640       -3.18570
H          8.50260       -1.16840       -1.66270
H          5.03850       -1.75200       -3.06830
H          6.49030       -2.62470       -2.47140
H          6.52530       -1.57770       -3.80000
H          6.83430        0.97660        2.94790
H          5.16000        1.52110        2.60020
H          6.48640        2.65740        2.75360
H          8.67840        0.96180        1.19040
H          8.38680        2.67970        1.35450
H          8.44700        1.99140       -0.23720
H          4.91220        2.83300       -0.01180
H          6.44130        3.00090       -0.84550
H          6.25890        3.76570        0.71450
