54

P          1.08350        0.05200        0.01800
Cl        -0.37510        0.69260        1.34540
Cl         1.17550        2.02460       -0.62870
Cl        -0.54700       -1.00510       -0.70530
Pt         3.54350        0.05200        0.01800
Br         3.26850        0.17270       -2.47910
C          3.57700        1.00180        1.86850
C          3.02180        0.49500        2.96530
P          6.00350        0.05200        0.01800
C          6.85560        1.57640       -0.55360
C          7.08320        1.82170       -1.92510
C          7.64110        3.03550       -2.35780
C          7.85590        3.29840       -3.81610
C          7.98840        4.01710       -1.42990
C          7.71580        3.82130       -0.07640
C          7.12620        2.63200        0.34470
C          6.55880       -0.11410        1.75840
C          7.78880        0.39290        2.24630
C          8.18000        0.18730        3.57970
C          9.45650        0.77800        4.11410
C          7.37190       -0.57900        4.42560
C          6.19330       -1.14390        3.93910
C          5.79840       -0.92150        2.61720
C          6.48290       -1.08170       -1.33440
C          5.54570       -1.89210       -1.99430
C          5.92780       -2.75660       -3.03390
C          4.90330       -3.54760       -3.80080
C          7.28180       -2.87290       -3.36440
C          8.23730       -2.13050       -2.66710
C          7.84260       -1.23850       -1.66330
H          4.07930        1.96340        1.92420
H          2.52090       -0.46350        2.93680
H          3.08520        1.04700        3.89910
H          6.80210        1.08280       -2.66660
H          7.48540        2.45790       -4.44180
H          8.94020        3.44920       -4.01930
H          7.29920        4.21480       -4.10470
H          8.42750        4.95670       -1.74620
H          7.93980        4.60050        0.64030
H          6.88560        2.56060        1.39670
H          8.45800        0.94410        1.60550
H          9.98430        1.38370        3.34640
H         10.13620       -0.03040        4.45570
H          9.22560        1.44210        4.97450
H          7.66490       -0.75410        5.45350
H          5.58540       -1.75990        4.58860
H          4.89040       -1.38770        2.25940
H          4.51700       -1.87420       -1.69490
H          3.87050       -3.33180       -3.45360
H          5.09460       -4.63660       -3.70430
H          4.96100       -3.26980       -4.87560
H          7.59610       -3.54720       -4.15220
H          9.28510       -2.24540       -2.91140
H          8.60110       -0.67220       -1.13800
