69

P          1.04590       -0.04260       -0.07790
C          0.32710       -1.58970       -0.71300
C          1.25450       -2.53730       -1.21550
C          0.81910       -3.72990       -1.82270
C          1.80500       -4.73540       -2.37130
C         -0.54920       -3.97500       -1.93250
C         -1.47450       -3.05100       -1.43510
C         -1.05220       -1.86070       -0.82120
C          0.56260       -0.20260        1.67720
C         -0.14580       -1.27030        2.27110
C         -0.64740       -1.13860        3.59080
C         -1.43150       -2.23010        4.25180
C         -0.44490        0.04870        4.29970
C          0.27730        1.08900        3.73320
C          0.78620        0.95760        2.44480
C          0.08540        1.20630       -1.03220
C         -0.10470        2.49790       -0.48870
C         -0.85290        3.47720       -1.16320
C         -1.10440        4.82690       -0.54310
C         -1.38640        3.18550       -2.41960
C         -1.20140        1.92110       -2.98360
C         -0.49500        0.93150       -2.29100
Pt         3.50590       -0.04260       -0.07790
Br         3.50590       -2.02640        1.58730
C          3.50590        1.60410       -1.46020
C          2.67840        1.98720       -2.42200
N          5.60590       -0.04260       -0.07790
C          6.38820        0.44230        0.96290
N          5.81240        1.07330        2.13770
C          4.44830        1.56810        2.19190
C          6.59120        1.33070        3.34820
C          7.79330        0.42920        0.78740
C          8.36220       -0.11390       -0.35740
C          7.55110       -0.62090       -1.35820
C          6.16830       -0.54030       -1.21440
H          2.31420       -2.33600       -1.15760
H          2.85690       -4.42830       -2.19870
H          1.65520       -4.85470       -3.46710
H          1.64890       -5.72440       -1.88880
H         -0.90000       -4.88280       -2.41400
H         -2.53120       -3.25390       -1.54400
H         -1.77490       -1.14990       -0.46930
H         -0.35510       -2.17510        1.72490
H         -1.51010       -3.12880        3.60780
H         -2.45570       -1.86550        4.48440
H         -0.93200       -2.51220        5.20360
H         -0.85220        0.17630        5.29820
H          0.42590        2.00980        4.28260
H          1.32230        1.80020        2.03810
H          0.30200        2.75850        0.46740
H         -0.62810        4.92200        0.45620
H         -2.19960        4.96640       -0.40940
H         -0.72050        5.63900       -1.19570
H         -1.94880        3.93820       -2.96110
H         -1.61390        1.71010       -3.96140
H         -0.36820       -0.03500       -2.76080
H          4.42680        2.17630       -1.40160
H          1.82060        1.43550       -2.69490
H          2.93440        2.85240       -3.02780
H          3.90690        1.46570        1.24970
H          4.45040        2.65890        2.41370
H          3.89060        1.05030        3.00110
H          7.60120        0.89550        3.34330
H          6.07900        0.87290        4.21780
H          6.67920        2.42740        3.51820
H          8.48440        0.86000        1.49570
H          9.44100       -0.12670       -0.47210
H          7.98910       -1.06350       -2.24160
H          5.52950       -0.93760       -1.99240
