87

P          1.06810        0.02760        0.06780
C          0.22720       -0.52900       -1.59690
C         -1.31740       -0.60010       -1.62570
C          0.65950        0.43050       -2.73540
C          0.73370       -1.91070       -2.08270
C          0.64200       -1.35020        1.47280
C          1.14900       -2.82020        1.34050
C          1.21140       -1.00940        2.88420
C         -0.88530       -1.49170        1.64940
C          0.23870        1.76480        0.22090
C          0.07420        2.76360        1.48330
C          1.38210        3.30740        2.01230
C         -0.74830        3.99940        1.03940
C         -0.68150        2.20690        2.70250
Pt         3.52810        0.02760        0.06780
Br         3.52810       -2.51800       -0.40980
C          3.52810        2.14070        0.46430
C          4.17380        2.75230        1.45540
P          5.98810        0.02760        0.06780
C          7.18990        1.39060       -0.25670
C          7.17920        2.61000        0.45070
C          7.86680        3.73680       -0.03260
C          8.59470        3.66310       -1.21760
C          8.65380        2.46230       -1.92110
C          7.96140        1.34570       -1.44430
C          6.27310       -0.46150        1.77400
C          5.17530       -0.65240        2.60930
C          5.34460       -1.17560        3.88410
C          6.63330       -1.49550        4.34920
C          7.73980       -1.29040        3.51660
C          7.56290       -0.77090        2.22870
C          6.55410       -1.40720       -0.93710
C          6.15820       -1.37900       -2.40320
C          5.32010       -0.39600       -2.97320
C          4.97580       -0.44890       -4.32660
C          5.46900       -1.48120       -5.13320
C          6.30510       -2.45170       -4.58880
C          6.64790       -2.40500       -3.23480
H         -1.80730        0.36330       -1.41760
H         -1.73230       -1.37770       -0.98560
H         -1.65570       -0.90640       -2.64030
H          0.30970        1.46220       -2.57950
H          0.22660        0.09480       -3.70960
H          1.76460        0.42700       -2.86590
H          0.43020       -2.73460       -1.43470
H          1.82350       -1.90180       -2.25580
H          0.30510       -2.18340       -3.07100
H          2.20850       -2.92330        1.63340
H          0.91850       -3.34380        0.41330
H          0.68810       -3.47490        2.11460
H          2.30290       -0.96180        2.89120
H          0.94120       -1.80070        3.62620
H          0.86170       -0.13790        3.38010
H         -1.32800       -2.07950        0.83780
H         -1.38800       -0.51550        1.77510
H         -1.13340       -2.11050        2.54290
H         -0.81820        1.56430       -0.00410
H          0.64600        2.37020       -0.60960
H          1.87140        3.88950        1.20560
H          1.95510        2.45200        2.42100
H          1.25360        4.02120        2.85290
H         -0.26450        4.51900        0.18710
H         -0.82600        4.74060        1.87230
H         -1.78140        3.71290        0.75620
H         -0.08900        1.50730        3.24310
H         -1.66580        1.77160        2.45020
H         -0.82790        2.99800        3.47240
H          3.05590        2.74280       -0.30450
H          4.69200        2.20440        2.22750
H          4.16520        3.84170        1.48800
H          6.60900        2.73720        1.34240
H          7.80220        4.68250        0.49190
H          9.09650        4.54450       -1.60930
H          9.21180        2.41120       -2.84710
H          7.99120        0.47560       -2.07630
H          4.19890       -0.43070        2.24060
H          4.49040       -1.35410        4.53080
H          6.76790       -1.91620        5.33900
H          8.73070       -1.54520        3.86790
H          8.42070       -0.65220        1.57750
H          6.18700       -2.34880       -0.48760
H          7.66110       -1.45030       -0.84900
H          4.91520        0.41230       -2.38260
H          4.32510        0.30580       -4.75070
H          5.19640       -1.52160       -6.18230
H          6.68450       -3.24890       -5.21980
H          7.29780       -3.17090       -2.83420
