97

P          0.99400       -0.05700        0.08200
C         -0.16310       -1.25950       -0.70780
C         -1.26120       -1.84770       -0.04490
C         -1.97770       -2.90300       -0.64430
C         -3.13330       -3.54250        0.07470
C         -1.61230       -3.37680       -1.90250
C         -0.54790       -2.79670       -2.58160
C          0.16580       -1.74830       -1.98900
C          0.52630       -0.39150        1.83550
C          0.78500       -1.67200        2.33740
C          0.43700       -2.04580        3.64690
C          0.78450       -3.40220        4.17640
C         -0.23360       -1.13300        4.46670
C         -0.54370        0.14180        3.97760
C         -0.17170        0.50210        2.68070
C          0.59450        1.50930       -0.81470
C          0.75540        1.59500       -2.21630
C          0.39010        2.76070       -2.92610
C          0.54010        2.85620       -4.41640
C         -0.13100        3.85690       -2.23470
C         -0.29100        3.79530       -0.85840
C          0.06780        2.64050       -0.15990
Pt         3.45400       -0.05700        0.08200
Br         3.45400        2.20620        1.34140
C          3.45400       -1.93570       -0.96350
C          4.52500       -2.67280       -1.28060
C          5.60400       -0.05700        0.08200
N          6.35870       -0.39020        1.21600
C          6.07540       -0.91060        2.59990
C          4.95610       -1.74510        2.91250
C          3.87370       -2.01260        1.98980
C          4.83470       -2.44910        4.12150
C          5.78020       -2.35610        5.10840
C          5.65970       -3.23170        6.32730
C          6.82210       -1.45890        4.93680
C          6.99320       -0.72630        3.72480
C          8.13680        0.26410        3.75700
C          7.62560       -0.35050        0.76150
C          7.66920        0.03420       -0.53890
N          6.42350        0.22610       -1.00580
C          6.20220        0.84350       -2.33910
C          7.00730        0.59260       -3.51100
C          8.06640       -0.46920       -3.63740
C          6.83780        1.39280       -4.67220
C          5.91920        2.44410       -4.70660
C          5.75230        3.36190       -5.88020
C          5.15140        2.69380       -3.60070
C          5.29280        1.92910       -2.45300
C          4.51420        2.38330       -1.32620
H         -1.55500       -1.52300        0.94480
H         -3.31790       -3.06650        1.06200
H         -2.91880       -4.61990        0.24100
H         -4.05210       -3.44570       -0.54110
H         -2.14570       -4.20370       -2.35670
H         -0.24960       -3.18050       -3.54300
H          1.01500       -1.37000       -2.53310
H          1.24000       -2.38930        1.67570
H          1.35060       -3.99740        3.42930
H         -0.13650       -3.95370        4.44870
H          1.42410       -3.28690        5.07850
H         -0.53040       -1.40370        5.47330
H         -1.09590        0.82610        4.60330
H         -0.47900        1.47460        2.39130
H          1.15060        0.76230       -2.77050
H          0.90290        1.90410       -4.85600
H          1.26340        3.66190       -4.66160
H         -0.44000        3.10440       -4.87870
H         -0.41890        4.75690       -2.76440
H         -0.70170        4.64410       -0.32690
H         -0.08020        2.68230        0.88530
H          2.50250       -2.35970       -1.22170
H          5.53110       -2.38370       -1.01450
H          4.37980       -3.63290       -1.76850
H          3.34710       -1.06060        1.83890
H          3.14980       -2.73920        2.39020
H          4.33740       -2.50910        1.15340
H          3.99640       -3.11950        4.29410
H          4.78610       -3.92220        6.25670
H          5.55180       -2.62850        7.24830
H          6.56180       -3.87590        6.39870
H          7.52750       -1.35910        5.74860
H          8.58470        0.33210        4.77210
H          7.73560        1.27450        3.52790
H          8.99560        0.02480        3.12110
H          8.50760       -0.62450        1.29620
H          8.58790        0.18840       -1.08620
H          8.17280       -1.12930       -2.76030
H          9.04340        0.01970       -3.85010
H          7.81930       -1.12770       -4.49700
H          7.44700        1.21240       -5.54840
H          6.42890        3.09580       -6.71500
H          5.98180        4.40240       -5.55280
H          4.69720        3.33760       -6.23140
H          4.45650        3.52850       -3.62370
H          3.90950        3.29890       -1.49200
H          5.24630        2.60370       -0.51590
H          3.81060        1.56670       -1.14730
