90

P          1.08590        0.04890       -0.01500
C          0.04150       -0.62780        1.47900
C         -1.40060       -0.56820        1.66130
C         -2.33890        0.09840        0.71240
C         -2.03030       -1.13850        2.81920
C         -1.31400       -1.73400        3.85060
C         -1.96040       -2.38280        5.05470
C          0.05000       -1.69590        3.77910
C          0.72320       -1.14960        2.66790
C          2.16710       -1.05340        2.92240
C          0.34360        1.80640       -0.05730
C          0.09030        2.58940        1.14420
C          0.44330        2.19110        2.54980
C         -0.49550        3.86920        1.07390
C         -0.85260        4.43780       -0.13650
C         -1.42000        5.82530       -0.23060
C         -0.67420        3.71120       -1.29110
C         -0.11690        2.42160       -1.28250
C         -0.02670        1.82370       -2.64430
C          0.69360       -1.28640       -1.36120
C         -0.29870       -2.35970       -1.27650
C         -0.99630       -2.93800       -0.07370
C         -0.72230       -3.05220       -2.43390
C         -0.18360       -2.82180       -3.67970
C         -0.67730       -3.59550       -4.88190
C          0.85400       -1.91650       -3.78680
C          1.31410       -1.16590       -2.67660
C          2.51520       -0.30150       -2.98820
Pt         3.54590        0.04890       -0.01500
Br         3.54590       -2.49280        0.48270
C          3.54590        2.15880       -0.42820
C          2.97000        3.11700        0.27430
C          5.69590        0.04890       -0.01500
N          6.47770        0.66600       -0.93850
C          6.10730        1.29630       -2.20770
C          7.74750        0.43030       -0.60670
C          7.76590       -0.32670        0.53040
N          6.50330       -0.57070        0.90760
C          6.20640       -1.05850        2.24610
C          5.14610       -0.49740        2.96280
C          4.92060       -0.82380        4.31010
C          5.75640       -1.72090        4.96160
C          6.84440       -2.26770        4.28440
C          7.08040       -1.93300        2.93800
H         -1.99410        1.10660        0.45860
H         -3.31360        0.29350        1.21510
H         -2.51820       -0.50750       -0.18750
H         -3.10600       -1.12250        2.92420
H         -3.06640       -2.34730        5.00250
H         -1.62560       -1.87990        5.98760
H         -1.65150       -3.45240        5.11560
H          0.61400       -2.09240        4.62440
H          2.59080       -1.94710        3.44760
H          2.30200       -0.19860        3.61880
H          2.69820       -0.74250        2.04050
H          1.09000        1.32480        2.57640
H         -0.48160        2.03300        3.14530
H          1.04030        2.99210        3.03640
H         -0.65030        4.44580        1.97980
H         -1.52190        6.30130        0.76610
H         -2.41690        5.79140       -0.71840
H         -0.74300        6.45410       -0.85020
H         -0.97330        4.17730       -2.22510
H         -0.71030        2.32100       -3.36630
H         -0.34630        0.77170       -2.66650
H          0.94030        2.13490       -3.05550
H         -0.49200       -2.80650        0.87640
H         -0.89960       -4.04400       -0.12560
H         -2.08650       -2.72590       -0.07750
H         -1.49670       -3.81230       -2.36210
H         -1.50270       -4.29330       -4.61530
H          0.15070       -4.20040       -5.30470
H         -1.06270       -2.90800       -5.66690
H          1.30000       -1.78520       -4.76870
H          3.01590       -0.65270       -3.91920
H          3.27560       -0.40350       -2.20250
H          2.31760        0.73640       -3.22020
H          4.21950        2.57090       -1.15320
H          2.44230        2.88780        1.16050
H          3.12360        4.16000        0.00440
H          5.03830        1.16130       -2.43900
H          6.64050        0.76280       -3.02860
H          6.41580        2.36060       -2.21960
H          8.61550        0.77620       -1.15640
H          8.66000       -0.61530        1.07190
H          4.52190        0.25070        2.49080
H          4.10740       -0.37550        4.86560
H          5.57450       -1.96940        6.00090
H          7.51460       -2.93420        4.80500
H          7.95300       -2.33930        2.45300
