64

P          0.97550       -0.03270        0.09130
C          0.21660        1.24960       -1.00720
C          1.03110        2.32120       -1.54670
C          2.48670        2.58500       -1.21500
C          0.46070        3.28690       -2.39740
C         -0.89730        3.26280       -2.68700
C         -1.70870        2.28820       -2.11650
C         -1.16540        1.30690       -1.27330
C          0.69720       -1.56830       -0.91470
C          1.44720       -2.75730       -0.63660
C          2.56510       -2.84850        0.36740
C          1.12960       -3.96610       -1.28680
C          0.05850       -4.04850       -2.16830
C         -0.71110       -2.92450       -2.42730
C         -0.39000       -1.70690       -1.81860
C         -0.06340        0.23450        1.57920
C         -0.41770        1.49220        2.16550
C          0.06900        2.83250        1.70000
C         -1.30740        1.51770        3.25750
C         -1.81860        0.33930        3.79770
C         -1.45810       -0.88460        3.24930
C         -0.60220       -0.93550        2.14750
Pt         3.43550       -0.03270        0.09130
Br         3.43550       -0.39800       -2.47280
C          3.43550        0.27060        2.21980
C          4.29070        0.67120        3.17680
N          5.53550       -0.03270        0.09130
C          6.23890       -0.38320        1.20870
C          7.62360       -0.29580        1.27670
C          8.33010        0.18690        0.18420
C          9.81680        0.38080        0.27120
C          7.63340        0.48940       -0.98790
C          6.23900        0.33160       -1.02830
H          2.89200        1.92610       -0.44050
H          2.56960        3.61180       -0.78840
H          3.12560        2.55480       -2.12120
H          1.06530        4.08820       -2.81020
H         -1.31580        4.01810       -3.33680
H         -2.77020        2.29940       -2.32030
H         -1.83900        0.59560       -0.82780
H          2.74630       -1.91640        0.91710
H          3.50550       -3.14350       -0.15170
H          2.31750       -3.62000        1.12070
H          1.69380       -4.86840       -1.08180
H         -0.20000       -4.99360       -2.63030
H         -1.56490       -2.99380       -3.08060
H         -1.06280       -0.92680       -2.06640
H          0.87300        2.76100        0.96280
H          0.49000        3.39480        2.55950
H         -0.78430        3.41190        1.28200
H         -1.60490        2.46090        3.70290
H         -2.49340        0.38080        4.64310
H         -1.85270       -1.79850        3.67460
H         -0.35640       -1.90650        1.73790
H          2.43800        0.10550        2.60780
H          5.31620        0.97160        3.03590
H          3.92450        0.73130        4.19940
H          5.74870       -0.82460        2.04980
H          8.12900       -0.59240        2.18850
H         10.20680        0.06960        1.26670
H         10.05230        1.46090        0.14380
H         10.32820       -0.20740       -0.50970
H          8.15980        0.86760       -1.85470
H          5.74350        0.63620       -1.92990
