111

P          0.98550        0.05190       -0.08430
C          0.28160        1.48970        0.78750
C         -1.07640        1.81800        0.91620
C         -1.45120        3.00640        1.57550
C         -0.47820        3.88000        2.10710
C         -0.84580        5.18300        2.75710
C          0.86860        3.52110        2.02240
C          1.23360        2.34380        1.38500
C          0.56040        0.58750       -1.78520
C         -0.20300        1.72060       -2.15230
C         -0.66720        1.87840       -3.46800
C         -0.37270        0.92200       -4.44380
C         -0.93580        1.02260       -5.84180
C          0.42310       -0.17150       -4.11620
C          0.87400       -0.33080       -2.81280
C          0.23650       -1.51210        0.47260
C         -0.58570       -1.60540        1.60950
C         -0.91940       -2.86870        2.12830
C         -0.44790       -4.04330        1.51530
C         -0.62420       -5.39310        2.15080
C          0.26810       -3.95070        0.31590
C          0.58940       -2.69840       -0.20540
Pt         3.44550        0.05190       -0.08430
Br         3.44550        2.44930       -1.06440
C          3.44550       -1.93820        0.72930
C          2.64880       -2.49570        1.64220
P          5.90550        0.05190       -0.08430
C          6.34330       -0.70610       -1.82870
C          6.53150        0.04780       -3.07910
C          6.29270        1.52250       -3.32170
C          7.03080       -0.59130       -4.24770
C          7.27500       -1.95360       -4.29180
C          7.84400       -2.65540       -5.49870
C          6.94040       -2.70970       -3.20120
C          6.45150       -2.14050       -2.01770
C          5.98790       -3.17410       -1.05500
C          6.63980        1.80620       -0.16530
C          6.13830        2.81410        0.73720
C          5.17430        2.54820        1.84590
C          6.58240        4.14420        0.69610
C          7.56350        4.53880       -0.19290
C          7.99890        5.97430       -0.28840
C          8.20210        3.57420       -0.94300
C          7.83320        2.21190       -0.88700
C          8.87150        1.29690       -1.49570
C          6.60440       -1.07400        1.36870
C          7.92090       -1.69610        1.25640
C          8.81810       -1.73710        0.05810
C          8.54670       -2.37450        2.33030
C          7.97420       -2.46120        3.57720
C          8.68240       -3.14490        4.72680
C          6.74980       -1.88100        3.77270
C          6.03820       -1.18140        2.75620
C          4.75510       -0.61380        3.38540
H         -1.82890        1.17490        0.49350
H         -2.49990        3.26570        1.64840
H         -1.94610        5.34670        2.76580
H         -0.37580        6.02450        2.20090
H         -0.47460        5.21170        3.80460
H          1.63830        4.17450        2.43060
H          2.28580        2.10070        1.34040
H         -0.50270        2.46820       -1.44190
H         -1.28580        2.73530       -3.71730
H         -1.58040        1.91820       -5.96810
H         -1.56070        0.12340       -6.06050
H         -0.11110        1.06330       -6.58500
H          0.64960       -0.93330       -4.85800
H          1.44970       -1.21740       -2.59310
H         -0.89010       -0.72480        2.14920
H         -1.49020       -2.93200        3.04900
H         -1.15940       -5.32380        3.12110
H          0.38720       -5.81110        2.36580
H         -1.15670       -6.09450        1.47890
H          0.64020       -4.84190       -0.17240
H          1.22280       -2.68360       -1.07720
H          4.31080       -2.53310        0.63560
H          1.85290       -1.95580        2.10720
H          2.86670       -3.48280        2.04000
H          5.81770        2.05180       -2.49270
H          5.61380        1.64950       -4.19390
H          7.24560        2.02890       -3.60020
H          7.23540       -0.01410       -5.14600
H          8.09030       -1.95690       -6.32300
H          7.12310       -3.41590       -5.87030
H          8.77790       -3.18570       -5.20300
H          7.05140       -3.78460       -3.29460
H          6.21530       -4.21520       -1.35210
H          4.89110       -3.12980       -1.15960
H          6.37460       -3.08200       -0.04530
H          4.81920        1.52320        1.77590
H          4.29500        3.22100        1.82110
H          5.70000        2.70270        2.81510
H          6.16380        4.88040        1.37530
H          7.43950        6.62760        0.41130
H          7.81090        6.34140       -1.32530
H          9.08260        6.05890       -0.07000
H          9.04740        3.89080       -1.54530
H          9.71010        1.85530       -1.96110
H          8.62000        0.57710       -2.26400
H          9.33150        0.75270       -0.65550
H          8.44160       -1.22620       -0.81000
H          8.98640       -2.79910       -0.22540
H          9.79870       -1.28450        0.30880
H          9.52250       -2.82140        2.20550
H          9.67180       -3.54940        4.42880
H          8.06810       -3.98360        5.12030
H          8.84940       -2.41720        5.55240
H          6.36980       -1.97210        4.78750
H          4.63180       -0.88330        4.46170
H          3.85070       -1.02530        2.99120
H          4.66820        0.46700        3.45780
