72

P          1.04290        0.08470        0.03140
C          0.28180       -1.06700       -1.22900
C         -1.24500       -1.14050       -1.39710
C          0.89470       -0.72270       -2.59950
C          0.65020       -0.56550        1.72320
C          1.20120        0.41440        2.76140
C         -0.85960       -0.70100        1.97390
C          0.30470        1.66140       -0.52930
Pt         3.50290        0.08470        0.03140
Br         3.39790       -2.36240        0.46990
C          3.39860        2.12360       -0.41670
C          2.96630        3.05580        0.42910
P          5.96290        0.08470        0.03140
C          6.77310        1.20340       -1.15270
C          8.03830        1.80450       -1.02850
C          8.44740        2.74980       -1.98120
C          7.61720        3.08480       -3.06020
C          6.38060        2.46410       -3.20550
C          5.96890        1.53400       -2.26200
C          6.34150        1.35750        1.30290
C          7.09880        0.90960        2.40950
C          7.53750        1.80440        3.38990
C          7.22830        3.15710        3.28730
C          6.48490        3.62460        2.19960
C          6.04520        2.72770        1.21310
C          6.58820       -1.68560       -0.10860
C          6.15340       -2.28350       -1.46970
C          7.06580       -1.84440       -2.63520
C          8.48960       -2.34540       -2.40060
C          9.04230       -1.74920       -1.09990
C          8.10660       -2.03520        0.09700
H          0.64520       -2.08590       -0.97360
H         -1.68270       -0.16690       -1.68510
H         -1.77580       -1.54190       -0.53000
H         -1.47310       -1.86410       -2.21200
H          0.54320        0.26330       -2.96600
H          0.61010       -1.47980       -3.36050
H          2.00490       -0.70440       -2.54070
H          1.11660       -1.55560        1.88790
H          0.72060        1.41210        2.65180
H          2.29840        0.52070        2.65240
H          0.98760        0.04120        3.78770
H         -1.40350        0.23560        1.71510
H         -1.06490       -0.93740        3.03940
H         -1.26470       -1.56170        1.42940
H         -0.79980        1.55510       -0.52890
H          0.64790        1.96470       -1.53430
H          0.51230        2.46080        0.20320
H          3.63900        2.45020       -1.41970
H          2.66170        2.80370        1.43380
H          2.90660        4.08770        0.08800
H          8.67800        1.58470       -0.18710
H          9.40130        3.24980       -1.88470
H          7.91800        3.82810       -3.78900
H          5.72660        2.70620       -4.03470
H          5.00400        1.05600       -2.38890
H          7.37120       -0.13030        2.49890
H          8.13390        1.44560        4.21730
H          7.58470        3.85490        4.03910
H          6.26350        4.67780        2.11540
H          5.52990        3.14190        0.37140
H          6.07660       -2.20020        0.72530
H          5.10640       -2.00490       -1.69470
H          6.20650       -3.39320       -1.41030
H          7.09150       -0.75000       -2.75220
H          6.68080       -2.26390       -3.58700
H          9.14700       -2.05870       -3.25280
H          8.47220       -3.45720       -2.34900
H          9.18360       -0.66130       -1.22380
H         10.04400       -2.20300       -0.91080
H          8.52170       -1.59540        1.02630
H          8.15060       -3.14190        0.22930
