26

P          0.95990       -0.02740       -0.08740
Cl        -0.61570       -1.33480       -0.41490
Cl         1.04480       -0.72550        1.86560
Cl        -0.47120        1.43380       -0.43880
Pt         3.41990       -0.02740       -0.08740
Br         3.00340        2.43340       -0.10900
C          3.32360       -2.09990       -0.07990
C          3.41820       -2.75640       -1.23430
N          5.51990       -0.02740       -0.08740
C          6.27640        1.11820       -0.26640
O          5.67160        2.30620       -0.47650
C          6.25740        3.49510       -0.86640
C          7.69190        1.05120       -0.29660
C          8.33440       -0.16700       -0.14020
C          7.57570       -1.30540        0.03820
C          6.19650       -1.22110        0.05490
H          3.19210       -2.64290        0.84800
H          3.54800       -2.20550       -2.16000
H          3.37170       -3.84100       -1.26410
H          5.46960        4.27170       -0.95500
H          6.73740        3.37270       -1.86100
H          6.99730        3.83150       -0.11240
H          8.29860        1.92880       -0.45550
H          9.41460       -0.21970       -0.15890
H          8.06990       -2.26490        0.17450
H          5.67750       -2.15470        0.21160
