65

P          0.95450       -0.04920       -0.07420
C          0.14440       -0.74870       -1.54210
C         -1.22820       -0.95940       -1.70740
C         -1.69890       -1.51880       -2.90290
C         -0.81480       -1.87640       -3.93060
C         -1.27970       -2.51090       -5.21010
C          0.55620       -1.64690       -3.76370
C          1.02180       -1.07760       -2.59250
C          0.40980       -1.52000        0.90370
C          0.59360       -2.87410        0.55210
C          0.16530       -3.91120        1.38740
C         -0.51400       -3.63200        2.57680
C         -0.98020       -4.74600        3.47430
C         -0.76970       -2.29780        2.91060
C         -0.30910       -1.26000        2.08800
C          0.13570        1.56490        0.14850
C         -0.69400        2.11390       -0.84940
C         -1.44080        3.26980       -0.60360
C         -1.36590        3.90990        0.63980
C         -2.22150        5.11070        0.93410
C         -0.50720        3.39830        1.62200
C          0.23270        2.23170        1.37970
Pt         3.41450       -0.04920       -0.07420
Br         3.41450       -2.55060       -0.74570
C          3.41450        2.02730        0.48320
C          3.53460        2.37830        1.76070
C          5.56450       -0.04920       -0.07420
N          6.37660        1.07180       -0.10610
C          6.10870        2.48510       -0.36680
C          7.65290        0.64580       -0.02290
Cl         9.09930        1.65670       -0.05440
C          7.66810       -0.69910        0.05990
Cl         9.14150       -1.66860        0.19020
N          6.39910       -1.16040        0.01320
C          6.15590       -2.59450        0.18360
H         -1.92410       -0.68670       -0.92330
H         -2.76810       -1.67250       -3.03630
H         -2.38710       -2.63310       -5.22450
H         -0.82470       -3.52210       -5.30850
H         -0.98030       -1.90230       -6.08680
H          1.25840       -1.90820       -4.54730
H          2.08520       -0.90110       -2.50040
H          1.03880       -3.16730       -0.37040
H          0.35360       -4.93760        1.09590
H         -0.66110       -5.73980        3.09180
H         -2.08790       -4.73930        3.54250
H         -0.55360       -4.61880        4.49230
H         -1.31860       -2.05980        3.81390
H         -0.52230       -0.24400        2.38610
H         -0.80890        1.64520       -1.81370
H         -2.09800        3.64740       -1.37760
H         -2.87550        5.36950        0.07320
H         -1.59020        5.98890        1.17860
H         -2.88050        4.88480        1.80030
H         -0.43750        3.88360        2.58790
H          0.85050        1.83210        2.17190
H          3.18120        2.78860       -0.25450
H          3.66140        1.61850        2.52280
H          3.45630        3.42280        2.04690
H          5.22450        2.62520       -1.00430
H          6.88470        2.87490       -1.06330
H          6.17890        3.08770        0.56260
H          7.06340       -3.15130        0.48710
H          5.89620       -3.06150       -0.78370
H          5.44520       -2.76300        1.01980
