48

P          0.95230        0.06280       -0.06150
C         -0.35730        0.82770        0.94530
C          0.71390        1.06380       -1.56050
C          0.40160       -1.64280        0.01890
C         -0.22620       -2.26090       -1.07190
C         -0.73580       -3.55610       -0.93090
C         -0.62310       -4.23160        0.28480
C          0.00400       -3.61560        1.36920
C          0.52090       -2.32690        1.23290
Pt         3.41230        0.06280       -0.06150
Br         3.41230       -1.61250       -2.03670
C          3.41230        1.45350        1.57820
C          3.33270        1.04530        2.84090
N          5.51230        0.06280       -0.06150
C          6.26930       -0.93350       -0.36570
C          5.82130       -2.36120       -0.34700
C          6.57250       -3.38860       -0.93860
C          6.16790       -4.72500       -0.82080
C          5.02000       -5.06160       -0.10830
C          4.27570       -4.06010        0.51140
C          4.67120       -2.72180        0.40400
N          7.63570       -0.60120       -0.32280
C          7.73860        0.80190       -0.05130
C          6.31560        1.16300        0.41400
H         -1.37130        0.65600        0.54350
H         -0.14780        1.91910        1.01030
H         -0.27870        0.43170        1.98200
H         -0.37020        1.13200       -1.79430
H          1.24730        0.61770       -2.41970
H          1.09920        2.08930       -1.37190
H         -0.33620       -1.73630       -2.01070
H         -1.23190       -4.03410       -1.77120
H         -1.03380       -5.22730        0.38880
H          0.07320       -4.13060        2.31970
H          0.98020       -1.85190        2.08900
H          3.51730        2.51090        1.35900
H          3.26020       -0.01020        3.07360
H          3.35960        1.77530        3.64490
H          7.47750       -3.16100       -1.48220
H          6.75990       -5.50810       -1.28910
H          4.71790       -6.09820       -0.02260
H          3.39690       -4.32060        1.08430
H          4.08790       -1.97130        0.92330
H          8.42390       -1.22880       -0.53610
H          7.99430        1.28730       -1.02010
H          8.48960        1.05400        0.72520
H          6.01420        2.13030       -0.04340
H          6.23130        1.20270        1.52050
