55

P          0.99030       -0.09920       -0.00860
C          0.08070       -1.39900        0.86170
C         -1.30230       -1.38350        1.05970
C         -1.91620       -2.40530        1.79770
C         -1.14970       -3.45810        2.34740
O         -1.70420       -4.46560        3.07170
C         -3.04220       -4.57950        3.38310
C          0.23210       -3.46570        2.15050
C          0.84250       -2.44330        1.42490
C          0.39740        1.34800        0.88490
C          0.41120        1.40650        2.28640
C         -0.13310        2.51450        2.94840
C         -0.68540        3.58510        2.21350
O         -1.25200        4.66890        2.80500
C         -1.45390        4.83310        4.15940
C         -0.67080        3.52810        0.81590
C         -0.14460        2.41530        0.15680
C          0.47450       -0.54080       -1.69330
C         -0.38550       -1.61190       -2.01270
C         -0.83010       -1.79870       -3.31800
C         -0.42230       -0.92980       -4.34480
O         -0.81270       -1.10150       -5.63330
C         -1.53440       -2.18210       -6.09820
C          0.42280        0.14010       -4.03220
C          0.86420        0.33350       -2.71990
Pt         3.45030       -0.09920       -0.00860
Br         3.44400       -2.31910       -1.13410
C          3.57230        1.78620        0.94950
C          4.73680        2.43810        1.25300
C          5.60030       -0.09920       -0.00860
O          6.81830       -0.09920       -0.00860
H         -1.89890       -0.57780        0.65690
H         -2.98380       -2.36390        1.94150
H         -3.20560       -5.49960        3.98000
H         -3.64520       -4.64780        2.45260
H         -3.36700       -3.70370        3.98440
H          0.83910       -4.26280        2.57000
H          1.91820       -2.46900        1.30740
H          0.81470        0.58630        2.86590
H         -0.13140        2.52420        4.02960
H         -1.96180        5.80340        4.33690
H         -0.48350        4.83420        4.69820
H         -2.10600        4.02060        4.54690
H         -1.08760        4.34260        0.23570
H         -0.16530        2.38820       -0.92460
H         -0.75810       -2.30670       -1.28100
H         -1.50310       -2.62230       -3.51270
H         -1.65490       -2.09990       -7.19630
H         -2.53940       -2.21390       -5.62520
H         -0.98280       -3.12140       -5.87400
H          0.73560        0.82920       -4.80720
H          1.49940        1.18380       -2.50100
H          2.67960        2.31330        1.21450
H          5.73590        2.05770        1.04740
H          4.67030        3.40880        1.73890
