76

P          1.03750        0.08560        0.03570
C         -0.21560       -0.87570        0.96150
C          0.73830        1.51480        1.13650
C          0.26850       -0.12610       -1.58970
C         -0.75540        0.72530       -2.03030
C         -1.44960        0.43650       -3.21650
C         -1.12690       -0.69950       -3.96650
C         -0.10940       -1.54810       -3.53580
C          0.57750       -1.26490       -2.35430
Pt         3.49750        0.08560        0.03570
Br         3.50860        1.22400       -2.16540
C          3.31760       -0.89740        1.95230
C          4.36580       -1.33270        2.70020
C          5.64750        0.08560        0.03570
N          6.36060       -1.03290       -0.11190
C          5.97570       -2.50870       -0.30960
C          6.95230       -3.52830       -0.77550
C          8.33260       -3.36100       -1.39270
C          6.63580       -4.91900       -0.82780
C          5.40070       -5.41280       -0.49310
C          5.02030       -6.86770       -0.53660
C          4.43300       -4.52580       -0.19560
C          4.63570       -3.13390       -0.17460
C          3.27090       -2.56190       -0.09990
C          7.73400       -0.57220        0.04560
C          7.72580        0.89120       -0.35300
N          6.39110        1.31550       -0.08470
C          6.05280        2.67110        0.40570
C          6.85680        3.84330        0.10410
C          8.05640        3.91530       -0.80870
C          6.54200        5.09910        0.68250
C          5.45740        5.26380        1.53400
C          5.09420        6.57160        2.16750
C          4.67900        4.18270        1.82870
C          4.95370        2.92350        1.30550
C          4.04060        1.90900        1.81300
H         -1.24830       -0.51630        0.80070
H          0.02350       -0.87590        2.04780
H         -0.13720       -1.93530        0.63020
H         -0.35500        1.69230        1.24470
H          1.16860        2.43320        0.69240
H          1.16490        1.33040        2.14290
H         -1.04620        1.58320       -1.44070
H         -2.25560        1.07810       -3.54550
H         -1.67310       -0.93310       -4.87250
H          0.13290       -2.43960       -4.10310
H          1.32520       -1.95980       -2.03370
H          2.35220       -1.05400        2.36770
H          5.39570       -1.23030        2.38730
H          4.17310       -1.81230        3.66510
H          8.68120       -2.40870       -1.77820
H          8.29650       -3.87010       -2.38570
H          9.10470       -3.88180       -0.78880
H          7.36450       -5.64820       -1.16840
H          5.84900       -7.51460       -0.87900
H          4.15420       -7.00210       -1.22600
H          4.69530       -7.18790        0.47790
H          3.44550       -4.96050       -0.02190
H          2.59220       -3.11740       -0.77580
H          3.18830       -1.66990       -0.69440
H          2.75100       -2.82850        0.84870
H          8.54420       -0.98980       -0.51260
H          7.99190       -0.68380        1.12110
H          7.86550        0.93730       -1.45640
H          8.50960        1.44310        0.21040
H          8.28360        3.02820       -1.40180
H          8.95110        4.18300       -0.20500
H          7.89030        4.71580       -1.56030
H          7.14990        5.96700        0.46020
H          5.80130        7.37570        1.89120
H          5.09700        6.44960        3.27400
H          4.06680        6.86040        1.85380
H          3.83620        4.33260        2.50010
H          3.38830        2.22310        2.65550
H          4.67930        1.11440        2.20950
H          3.33380        1.75850        1.00390
