54

P          1.06950       -0.03170        0.06450
O          0.74610        0.26790       -1.58430
C          1.27940        1.51680       -1.95210
C          0.83600        1.82040       -3.37930
O          0.69140       -1.63390        0.57220
C         -0.70920       -1.85750        0.40990
C         -1.13490       -3.16470        1.05830
C         -0.14710        0.92260        1.03760
C         -1.07400        1.84120        0.52250
C         -1.91160        2.55300        1.40270
C         -1.83110        2.34920        2.78570
C         -0.91390        1.43420        3.29990
C         -0.07800        0.73700        2.43260
Pt         3.52950       -0.03170        0.06450
Br         3.52950       -2.00060       -1.61830
C          3.52950        1.60260        1.46140
C          4.30850        2.65520        1.78590
N          5.62950       -0.03170        0.06450
C          6.52070       -0.81380       -0.76690
N          6.15490       -1.86810       -1.69250
C          6.15560       -3.23600       -1.12530
C          6.64580       -1.78180       -3.07760
C          7.92380       -0.67890       -0.64770
C          8.50090        0.08540        0.31400
C          7.68540        0.70150        1.21930
C          6.29900        0.61920        1.08150
H          2.38970        1.49970       -1.91860
H          0.89720        2.33850       -1.31010
H          1.23130        1.04810       -4.07300
H          1.21130        2.81590       -3.69600
H         -0.27450        1.82260       -3.44480
H         -0.98930       -1.86450       -0.66440
H         -1.33980       -1.12340        0.94930
H         -0.63620       -4.02260        0.57040
H         -2.23880       -3.27750        0.95560
H         -0.89480       -3.14960        2.14430
H         -1.16590        2.02300       -0.53510
H         -2.62030        3.27550        1.01560
H         -2.47550        2.90020        3.46340
H         -0.84710        1.27190        4.36960
H          0.63570        0.03920        2.85340
H          2.57140        1.64290        1.96550
H          5.26080        2.89160        1.32900
H          3.96070        3.34840        2.54780
H          6.36070       -3.24070       -0.02990
H          5.18860       -3.77880       -1.21190
H          6.79310       -3.95450       -1.67210
H          7.39530       -0.98220       -3.23310
H          5.79040       -1.59130       -3.76000
H          7.11710       -2.73000       -3.41630
H          8.59120       -1.25690       -1.29220
H          9.58360        0.14020        0.40850
H          8.12250        1.21700        2.06400
H          5.81700        0.98700        1.93450
