46

P          0.99450        0.06600       -0.07490
O          0.39990        1.65800        0.15900
C          0.62410        2.06500        1.49720
C          0.37710        3.57080        1.61450
O          0.76310       -0.98850       -1.43080
C         -0.54700       -0.74840       -1.96120
C         -0.77210       -1.49070       -3.24840
C         -0.30070       -0.90570        0.78240
C         -1.56240       -0.38040        1.12530
C         -2.51350       -1.18860        1.75230
C         -2.22340       -2.52420        2.05060
C         -0.97220       -3.04970        1.73520
C         -0.02290       -2.24520        1.10820
Pt         3.45450        0.06600       -0.07490
Br         3.45450       -2.51420       -0.30000
C          3.45450        2.20780        0.11190
C          2.68910        3.00080       -0.63510
N          5.55450        0.06600       -0.07490
C          6.22170       -0.99260        0.47110
C          7.61330       -0.96330        0.60390
Cl         8.44420       -2.20640        1.52280
C          8.32990        0.09060        0.04150
C          7.64540        1.13310       -0.57680
C          6.24810        1.13630       -0.56350
H          1.66080        1.86250        1.83340
H         -0.07440        1.55660        2.19480
H          1.03660        4.15010        0.93960
H          0.58210        3.90920        2.65000
H         -0.67220        3.80580        1.34870
H         -0.74540        0.31880       -2.15330
H         -1.34380       -1.18580       -1.33380
H         -0.12070       -1.14410       -4.05860
H         -1.84500       -1.37850       -3.58200
H         -0.60370       -2.58880       -3.11040
H         -1.82360        0.64760        0.88730
H         -3.48690       -0.78760        2.00050
H         -2.96510       -3.14600        2.53220
H         -0.74250       -4.08140        1.97110
H          0.93590       -2.67610        0.86680
H          4.24710        2.68360        0.68060
H          1.98380        2.59540       -1.34820
H          2.82200        4.07750       -0.58410
H          5.67790       -1.79130        0.94820
H          9.41040        0.11050        0.09710
H          8.19070        1.94130       -1.04720
H          5.72830        1.94880       -1.04850
