90

P          1.27500        0.00000        0.00000
O          0.41140       -1.43540        0.43550
C         -0.98610       -1.30090        0.45260
C         -1.41100        0.09590        0.03010
C         -2.94320        0.19600        0.03540
C         -0.75950        1.08380        1.05770
O          0.63510        0.87980        1.30280
O          0.58650        0.02290       -1.55120
C         -0.80830        0.32150       -1.40710
Pt         3.73500        0.00030       -0.00050
Br         3.73490       -1.97260       -1.67850
C          3.73500        1.63810        1.39250
C          4.60280        2.30180        2.17000
C          5.88500        0.00060       -0.00090
N          6.66840        1.08830        0.06290
C          6.27210        2.54620       -0.07550
C          7.11670        3.63900        0.47600
C          8.42510        3.50860        1.26010
C          9.55940        3.94440        0.31050
C          8.41230        4.32400        2.59170
C          6.74000        5.00290        0.32720
C          5.59870        5.38590       -0.28780
C          4.80230        4.45040       -0.86050
C          5.07970        3.06980       -0.82860
C          4.00770        2.29220       -1.65510
C          2.53370        2.59180       -1.22780
C          3.96540        2.71760       -3.14260
C          7.92720        0.57460        0.04270
C          7.89610       -0.80960       -0.12270
N          6.63400       -1.25240       -0.24870
C          6.31990       -2.81350       -0.30280
C          6.68200       -3.67530        0.87030
C          7.87150       -3.51270        1.84770
C          7.58410       -3.75840        3.35760
C          8.91250       -4.60340        1.41380
C          6.03080       -4.90860        1.11650
C          5.12620       -5.44510        0.29450
C          5.02770       -4.92570       -0.94040
C          5.70450       -3.75310       -1.41110
C          5.34470       -3.78900       -3.00980
C          5.53210       -2.64240       -4.04750
C          5.74050       -5.13420       -3.70540
H         -1.34660       -1.52540        1.48140
H         -1.41310       -2.06490       -0.23500
H         -3.33880       -0.01620        1.05470
H         -3.38440       -0.55830       -0.65460
H         -3.27540        1.20630       -0.27550
H         -1.26920        0.93260        2.03560
H         -0.93960        2.13040        0.74240
H         -1.34870       -0.35460       -2.10720
H         -1.00260        1.36530       -1.73090
H          2.73640        1.95530        1.64590
H          5.66200        2.14140        2.23010
H          4.20050        3.08170        2.82180
H          8.66740        2.47520        1.57180
H          9.43440        4.98690       -0.04500
H          9.56800        3.28490       -0.58740
H         10.54710        3.85000        0.80330
H          9.40550        4.78040        2.78440
H          8.08920        3.68380        3.43580
H          7.70620        5.17450        2.63630
H          7.33620        5.81990        0.70950
H          5.33400        6.43580       -0.33260
H          3.94450        4.86420       -1.35970
H          4.25790        1.21890       -1.64750
H          2.23650        3.64790       -1.31890
H          2.22800        2.41300       -0.22640
H          1.83370        2.03720       -1.87200
H          3.52000        3.73530       -3.26190
H          3.27440        2.03400       -3.69220
H          4.94960        2.70780       -3.64340
H          8.85270        1.12140        0.04610
H          8.77340       -1.44010       -0.17390
H          8.35950       -2.53630        1.74430
H          7.21350       -4.77790        3.60050
H          6.86790       -3.02130        3.75750
H          8.53650       -3.69810        3.92790
H          8.50560       -5.64180        1.48490
H          9.82790       -4.59520        2.03930
H          9.21700       -4.46230        0.35350
H          6.21820       -5.52800        1.97640
H          4.59490       -6.36110        0.55720
H          4.36990       -5.52340       -1.55100
H          4.23310       -3.94720       -3.04760
H          6.59320       -2.38330       -4.19570
H          4.95990       -1.71180       -3.86860
H          5.09330       -2.98600       -5.01640
H          5.92880       -5.96780       -3.00210
H          6.61040       -5.02610       -4.36960
H          4.87980       -5.49390       -4.32790
