55

P          0.93150       -0.05210       -0.05090
C          0.47420        1.46930        0.89000
C          0.08210        1.44700        2.25040
C         -0.40310        2.60220        2.87890
C         -0.48900        3.80290        2.17780
C         -0.06920        3.85780        0.85250
C          0.40580        2.70710        0.21930
C          0.78030       -0.11720       -1.88010
C          0.04210        0.86840       -2.57850
C         -0.05810        0.83450       -3.97420
C          0.55420       -0.17670       -4.69910
C          1.30480       -1.15340       -4.03130
C          1.42770       -1.11220       -2.63450
C         -0.33790       -1.23030        0.70350
C         -1.82280       -0.87770        0.53880
C         -2.32440       -1.24370       -0.85870
C         -2.12650       -2.74740       -1.12580
C         -0.66650       -3.17470       -0.95120
C         -0.12980       -2.74170        0.41400
Pt         3.39150       -0.05210       -0.05090
Br         3.39150        2.21550       -1.30230
C          3.39150       -1.93450        0.98790
C          2.90550       -2.04780        2.22120
O          5.44150       -0.05210       -0.05090
C          6.21620       -1.00690        0.43080
N          7.52190       -0.69810        0.31380
C          7.52860        0.51280       -0.26720
C          6.23020        0.90290       -0.49770
H          0.10770        0.55440        2.84890
H         -0.73040        2.56150        3.90910
H         -0.87790        4.69070        2.65990
H         -0.12690        4.79140        0.30620
H          0.70500        2.80700       -0.80560
H         -0.48520        1.65010       -2.06980
H         -0.63640        1.59940       -4.49040
H          0.46140       -0.20410       -5.77960
H          1.76950       -1.94090       -4.60160
H          2.01710       -1.87520       -2.13900
H         -0.11180       -1.18620        1.78170
H         -2.00720        0.18750        0.78300
H         -2.40460       -1.48440        1.27150
H         -1.79170       -0.64590       -1.60990
H         -3.40410       -1.00010       -0.93420
H         -2.45190       -2.99060       -2.16070
H         -2.75260       -3.32650       -0.41380
H         -0.07420       -2.73620       -1.74470
H         -0.57020       -4.27670       -1.05690
H          0.93160       -3.03810        0.53680
H         -0.70780       -3.31480        1.17460
H          3.80570       -2.80670        0.49260
H          2.48480       -1.18690        2.72690
H          2.91790       -3.01280        2.71920
H          5.88860       -1.93260        0.87010
H          8.42190        1.07820       -0.49610
H          5.94900        1.84190       -0.93700
