46

P          1.27500        0.00000        0.00000
O          0.36470       -1.09420       -0.98300
C         -1.02620       -0.99500       -0.84780
C         -1.40700        0.14740        0.07090
C         -2.93910        0.25770        0.13750
C         -0.77270       -0.18710        1.47290
O          0.61180       -0.56520        1.45340
O          0.66690        1.37960       -0.77840
C         -0.74650        1.44500       -0.53180
Pt         3.73500        0.00030       -0.00050
Br         3.73510        1.85780        1.80450
C          3.73490       -1.54160       -1.49880
C          4.26950       -1.36350       -2.70510
C          5.88500        0.00060       -0.00090
N          6.72940        1.06410        0.07300
C          6.42700        2.49140        0.06110
C          7.98640        0.54680        0.06360
C          9.27310        1.31970        0.09340
C          7.90020       -0.82860        0.01170
C          9.04710       -1.80550        0.00590
N          6.59710       -1.16740       -0.03490
C          6.09880       -2.54810        0.00350
H         -1.41240       -1.96360       -0.45860
H         -1.45480       -0.83990       -1.86280
H         -3.37840       -0.69360        0.51440
H         -3.35720        0.43330       -0.87960
H         -3.24980        1.08640        0.80160
H         -1.32570       -1.05760        1.89050
H         -0.92250        0.66810        2.16400
H         -1.23270        1.64510       -1.51320
H         -0.96340        2.30620        0.13230
H          3.29000       -2.49850       -1.24430
H          4.72660       -0.41940       -2.97390
H          4.25070       -2.17790       -3.42410
H          5.35350        2.67630       -0.09170
H          6.94160        2.96450       -0.80280
H          6.78640        2.96740        0.99950
H          9.10830        2.41350        0.12900
H          9.85710        1.08470       -0.82240
H          9.87400        1.02390        0.98200
H         10.03060       -1.29460        0.02960
H          8.99750       -2.42100       -0.91740
H          8.98360       -2.47180        0.89140
H          6.91510       -3.27540        0.18030
H          5.67200       -2.86080       -0.95810
H          5.37560       -2.66240        0.83890
