67

P          0.94810        0.01950        0.08320
C         -0.04380       -0.07850        1.61910
C          0.54920        1.76650       -0.26540
C         -0.21410       -1.12380       -0.75030
Pt         3.40810        0.01950        0.08320
Br         3.32970        1.94400        1.71060
C          3.59220       -1.61090       -1.28540
C          2.68300       -2.45780       -1.76370
C          5.55810        0.01950        0.08320
N          6.31530        1.17680        0.12310
C          5.98960        2.63480       -0.01490
C          6.85170        3.66600        0.55030
C          8.07320        3.42990        1.41660
C          6.57630        5.03440        0.34660
C          5.48860        5.47100       -0.38080
C          5.24410        6.94810       -0.58190
C          4.63850        4.53070       -0.93230
C          4.85780        3.13800       -0.78940
C          3.85700        2.29900       -1.55070
C          7.57700        0.70640        0.08330
C          7.58320       -0.65490        0.06340
N          6.32300       -1.13120        0.07090
C          5.99400       -2.59950        0.23780
C          4.80060       -3.08550        0.93430
C          3.72190       -2.26470        1.60630
C          4.55400       -4.46260        1.07850
C          5.44040       -5.42240        0.61200
C          5.20270       -6.89280        0.84430
C          6.57760       -5.00650       -0.04580
C          6.87740       -3.64240       -0.25180
C          8.15590       -3.42190       -1.01750
H         -1.12350        0.11760        1.46980
H          0.35540        0.65100        2.35430
H          0.09140       -1.09260        2.05670
H         -0.55610        1.88610       -0.20850
H          0.84930        2.02440       -1.29920
H          0.99220        2.46710        0.46100
H         -1.26620       -0.80710       -0.58800
H         -0.11530       -2.15090       -0.34030
H         -0.05000       -1.09740       -1.84610
H          4.57290       -1.73480       -1.72520
H          1.66750       -2.46140       -1.47990
H          2.97870       -3.20210       -2.49800
H          8.91730        2.98260        0.87940
H          7.79050        2.85540        2.31980
H          8.52730        4.38120        1.77130
H          7.22850        5.79480        0.76050
H          6.03740        7.56960       -0.11030
H          4.26980        7.24780       -0.14180
H          5.23570        7.18630       -1.66710
H          3.79490        4.90820       -1.50230
H          3.12350        2.91950       -2.11470
H          3.20460        1.74780       -0.89540
H          4.35200        1.62760       -2.27330
H          8.47840        1.25780        0.00320
H          8.49560       -1.18900        0.09650
H          3.93720       -1.19730        1.66160
H          3.59280       -2.59730        2.65670
H          2.74070       -2.45190        1.10330
H          3.67050       -4.80840        1.59620
H          4.25100       -7.08430        1.38310
H          6.03170       -7.30290        1.46240
H          5.17950       -7.43260       -0.12330
H          7.24790       -5.77660       -0.39790
H          8.57430       -4.36820       -1.42560
H          8.97120       -3.08200       -0.35880
H          7.97410       -2.75930       -1.88970
