36

P          1.27500        0.00000        0.00000
O          0.29660        1.42040       -0.12360
C         -1.08200        1.18460       -0.18770
C         -1.39720       -0.28580       -0.00070
C         -2.92210       -0.47990        0.00090
C         -0.70050       -1.04030       -1.19320
O          0.67440       -0.69890       -1.42340
O          0.65510       -0.43870        1.51790
C         -0.74640       -0.71460        1.36810
Pt         3.73500        0.00030       -0.00050
Br         3.51660       -2.47580        0.16570
C          3.63960        2.07640       -0.05830
C          3.16960        2.73190       -1.11720
N          5.83500        0.00060       -0.00090
C          6.54040       -1.16910        0.12850
C          7.93650       -1.17450        0.19850
F          8.61100       -2.33960        0.36130
C          8.63300        0.02950        0.11690
C          7.92850        1.21140       -0.02710
C          6.53250        1.18150       -0.08180
H         -1.45890        1.55230       -1.16820
H         -1.56340        1.79160        0.61050
H         -3.35860       -0.11900       -0.95790
H         -3.38460        0.11710        0.81990
H         -3.18500       -1.54500        0.14040
H         -1.24690       -0.76890       -2.12320
H         -0.80200       -2.13590       -1.05060
H         -1.27070       -0.15860        2.17800
H         -0.92400       -1.79650        1.53190
H          3.95820        2.63410        0.81740
H          2.82870        2.19220       -1.99190
H          3.12450        3.81740       -1.10350
H          6.05590       -2.11810        0.21330
H          9.71380        0.03880        0.17440
H          8.45450        2.15270       -0.09720
H          6.04290        2.12880       -0.19270
