104

P          1.01080       -0.04020        0.09090
C         -0.22260       -0.74260       -1.24380
C         -0.30080        0.02240       -2.61820
C          0.86810       -0.19240       -3.59400
C          1.08970       -1.72700       -3.87040
C          1.00000       -2.68160       -2.61790
C         -0.11810       -2.27860       -1.64120
C          0.55740       -0.94700        1.68580
C          1.18990       -2.33740        2.00120
C          0.68950       -2.82390        3.39880
C         -0.84510       -2.92350        3.46200
C         -1.46140       -1.58860        3.10530
C         -0.97280       -1.16340        1.74150
C          0.39460        1.77410        0.23000
C          1.25050        2.90000        0.07970
C          2.63280        2.83310       -0.36400
C          0.78500        4.21540        0.27130
C         -0.52500        4.47150        0.63010
C         -1.40190        3.40120        0.72640
C         -0.95120        2.07820        0.52420
Pt         3.47080       -0.04020        0.09090
Br         3.47080        1.23760        2.34370
C          3.47080       -1.10100       -1.77920
C          4.29430       -2.08200       -2.17970
P          5.93080       -0.04020        0.09090
N          6.81800       -0.91400        1.39000
C          6.33350       -0.63350        2.78130
C          6.85160       -1.64650        3.81490
C          6.64840        0.78790        3.30220
C          8.23930       -1.18870        1.19460
C          8.77230       -0.33000        0.09860
C         10.31240       -0.48120        0.01630
C          8.17910       -0.74300       -1.29270
N          6.69710       -0.73010       -1.41260
C          6.27940       -0.21170       -2.80970
C          6.58990        1.20950       -3.23650
C          6.73760       -1.13330       -3.95970
N          6.94090        1.49150        0.51450
C          6.93370        2.72860       -0.40360
C          5.60660        3.37170       -0.74800
C          7.83790        3.92480        0.05890
C          8.41640        1.11670        0.48950
H         -1.22420       -0.60350       -0.80540
H         -0.46380        1.10390       -2.46060
H         -1.18320       -0.37490       -3.16720
H          1.71410        0.42010       -3.22180
H          0.68960        0.30290       -4.57130
H          2.04760       -1.88740       -4.42770
H          0.27950       -2.03890       -4.55390
H          1.88810       -2.82570       -1.99570
H          0.90500       -3.72740       -2.99160
H         -0.08340       -2.94560       -0.75960
H         -1.04100       -2.53750       -2.19750
H          0.87860       -0.26760        2.49920
H          2.29530       -2.27400        2.02430
H          0.90420       -3.09570        1.24300
H          1.02400       -2.10250        4.17870
H          1.11290       -3.81880        3.65140
H         -1.19500       -3.20530        4.47980
H         -1.20940       -3.69040        2.74490
H         -1.18690       -0.80360        3.84430
H         -2.57230       -1.67060        3.07610
H         -1.50750       -0.25920        1.55990
H         -1.28800       -1.91780        0.99150
H          2.93810        1.81400       -0.60160
H          3.25240        3.26880        0.44300
H          2.75130        3.42640       -1.29660
H          1.45420        5.06830        0.16370
H         -0.86820        5.47460        0.80530
H         -2.44060        3.59610        0.98320
H         -1.73310        1.38080        0.58740
H          2.63410       -0.97410       -2.26910
H          5.12530       -2.42650       -1.58820
H          4.08300       -2.61060       -3.10610
H          5.23480       -0.77100        2.77710
H          7.94690       -1.57420        3.97000
H          6.58650       -2.67970        3.51630
H          6.38230       -1.43630        4.80110
H          7.73870        0.96840        3.35680
H          6.22660        0.92380        4.31930
H          6.17720        1.58540        2.70370
H          8.39160       -2.26540        0.96980
H          8.81410       -0.94450        2.11230
H         10.59240       -1.53350       -0.19990
H         10.79040       -0.17470        0.97150
H         10.73280        0.15940       -0.79120
H          8.51820       -1.77100       -1.54380
H          8.65040       -0.07820       -2.04540
H          5.21200       -0.12240       -2.91340
H          7.66510        1.45530       -3.26900
H          5.98370        1.85420       -2.63340
H          6.15360        1.43440       -4.23470
H          7.83660       -1.10530       -4.09050
H          6.27850       -0.78060       -4.91650
H          6.40420       -2.17780       -3.81990
H          7.41750        2.45620       -1.34080
H          5.21950        4.00920        0.06480
H          4.90950        2.61380       -1.08250
H          5.75860        4.05930       -1.63200
H          7.46820        4.39180        0.98150
H          7.84160        4.70860       -0.75020
H          8.91410        3.69740        0.17800
H          8.86840        1.39210        1.46310
H          9.02600        1.67080       -0.25810
