80

C          0.90100       -0.64300       -0.00200
N         -0.44630       -0.97500        0.02290
C         -1.09270       -2.29270       -0.23840
C         -0.84850       -3.31440        0.87170
C         -1.83700       -3.15930        2.04400
C         -3.27530       -3.38360        1.55260
C         -3.64150       -2.30020        0.53590
C         -2.62870       -2.29940       -0.63330
C         -1.09570        0.20100        0.12740
C         -0.17440        1.21840        0.15470
N          1.07490        0.70220        0.05710
C          2.36900        1.44460       -0.03470
C          2.16660        2.97730        0.00100
C          1.80400        3.46480        1.42110
C          2.95380        3.15620        2.37890
C          3.20670        1.64140        2.42240
C          3.47170        1.08350        1.01110
Pt         2.65840       -1.88140       -0.01350
Br         2.84790       -1.52980       -2.45700
C          2.54840       -2.22170        2.05750
C          1.66460       -1.64290        2.87730
P          4.66930       -3.29850       -0.02670
N          4.65110       -5.03040       -0.50150
C          5.80850       -5.90630       -0.30890
C          3.40690       -5.68380       -0.07180
O          5.17460       -3.51500        1.53680
C          6.08370       -2.59340        1.96580
C          5.81770       -1.89620        3.16030
C          6.67490       -0.89690        3.62460
C          7.83380       -0.58930        2.92480
C          8.14750       -1.28900        1.76470
C          7.28940       -2.29010        1.25090
C          7.75700       -2.98640        0.00590
C          9.08340       -3.47050        0.04060
C          9.63300       -4.15850       -1.03430
C          8.89440       -4.32990       -2.19940
C          7.59090       -3.83010       -2.28680
C          6.98440       -3.19530       -1.18510
O          5.66740       -2.87030       -1.29270
H         -0.58440       -2.63930       -1.16350
H          0.19940       -3.24780        1.20680
H         -1.00440       -4.32770        0.44250
H         -1.75280       -2.15390        2.51180
H         -1.60280       -3.92920        2.80710
H         -3.99120       -3.35820        2.40440
H         -3.35600       -4.39290        1.08500
H         -3.67980       -1.31660        1.04430
H         -4.66830       -2.51420        0.14680
H         -2.89100       -1.50630       -1.36860
H         -2.81330       -3.26790       -1.14940
H         -2.16830        0.33570        0.14530
H         -0.43290        2.26530        0.20700
H          2.78770        1.18120       -1.02930
H          1.39550        3.27040       -0.73990
H          3.11090        3.48120       -0.30420
H          0.89050        2.97440        1.81370
H          1.61750        4.55810        1.40060
H          2.70650        3.52630        3.39810
H          3.86460        3.69440        2.03250
H          2.32850        1.13530        2.86680
H          4.09040        1.44820        3.07390
H          3.67100       -0.00370        1.04740
H          4.41980        1.55790        0.66510
H          3.25460       -2.87180        2.54000
H          0.93520       -0.94100        2.53230
H          1.73840       -1.84580        3.94390
H          6.63990       -5.63550       -0.95810
H          5.56160       -6.92560       -0.68580
H          6.11630       -5.95000        0.74900
H          2.52400       -5.02790       -0.23900
H          3.46080       -5.97950        0.99600
H          3.23060       -6.59410       -0.68980
H          4.93030       -2.10250        3.73640
H          6.43800       -0.35390        4.53040
H          8.49600        0.19030        3.28320
H          9.06450       -1.02540        1.24790
H          9.68990       -3.35500        0.93270
H         10.63520       -4.56330       -0.95570
H          9.32840       -4.87500       -3.02730
H          7.02430       -4.00550       -3.19130
