72

C          0.90100       -0.64300       -0.00200
N          0.70450        0.48640       -0.75720
C          1.48760        1.12190       -1.85600
C          2.71010        0.28740       -2.27980
C          0.57650        1.26980       -3.10750
C          1.96340        2.52010       -1.42530
C         -0.49950        0.96230       -0.36010
C         -1.02940        0.13080        0.58830
N         -0.16490       -0.87730        0.81680
C         -0.38120       -1.93070        1.83890
C         -1.65880       -2.73050        1.52050
C          0.80360       -2.90730        1.90060
C         -0.54710       -1.25370        3.22020
Pt         2.65840       -1.88140       -0.01350
Br         3.68150       -0.44730        1.88510
C          1.80920       -3.07200       -1.58960
C          0.59680       -2.87990       -2.11730
P          4.66930       -3.29850       -0.02670
N          6.39920       -2.87640        0.04400
C          6.75260       -1.74900        0.92470
C          7.45920       -3.56750       -0.67820
O          4.55270       -4.41370       -1.27370
C          4.02640       -5.64390       -1.10980
C          3.14070       -6.12940       -2.09670
C          2.49680       -7.34800       -1.95670
C          2.76650       -8.14500       -0.85430
C          3.71170       -7.73580        0.08430
C          4.35510       -6.48400       -0.01480
C          5.45260       -6.18210        0.95460
C          6.39920       -7.22320        1.09470
C          7.52100       -7.08570        1.89600
C          7.71610       -5.91250        2.60790
C          6.78820       -4.86490        2.51530
C          5.65720       -4.95900        1.67620
O          4.83930       -3.86240        1.53780
H          2.39590       -0.69130       -2.69230
H          3.41170        0.13060       -1.43630
H          3.25880        0.81310       -3.09370
H          0.19150        0.27950       -3.43160
H          1.12450        1.72920       -3.95750
H         -0.29810        1.92220       -2.90550
H          2.65730        2.44340       -0.56190
H          1.10540        3.16420       -1.13760
H          2.49760        3.02390       -2.26090
H         -0.98330        1.84670       -0.74770
H         -1.98140        0.27080        1.07980
H         -1.57250       -3.23170        0.53350
H         -2.55100       -2.06890        1.49870
H         -1.83610       -3.50520        2.29870
H          0.92570       -3.42960        0.93160
H          0.63580       -3.67790        2.68340
H          1.73820       -2.37840        2.15300
H         -1.47710       -0.64510        3.25560
H          0.30950       -0.57770        3.43010
H         -0.61310       -2.00860        4.03300
H          2.38350       -3.83660       -1.99590
H         -0.07300       -2.10540       -1.77680
H          0.25360       -3.52010       -2.92340
H          6.13950       -0.85720        0.67810
H          7.81230       -1.44110        0.81200
H          6.57350       -2.01290        1.98490
H          7.06730       -4.07840       -1.57630
H          7.96480       -4.27170        0.00740
H          8.21420       -2.82390       -1.02550
H          2.92000       -5.55310       -2.98950
H          1.78490       -7.67310       -2.70470
H          2.26430       -9.09540       -0.74250
H          3.93570       -8.40230        0.90770
H          6.29670       -8.14650        0.53510
H          8.24450       -7.89230        1.94550
H          8.60310       -5.81170        3.21960
H          6.99400       -3.96130        3.06490
