51

C          0.90100       -0.64300       -0.00200
N         -0.38560       -1.11840       -0.07480
C         -0.88430       -2.53220       -0.17760
C         -0.33380       -3.38820        0.97780
C         -2.43500       -2.63280       -0.12960
C         -0.45890       -3.14680       -1.51680
C         -1.15700       -0.00760       -0.03340
C         -0.34830        1.10440        0.03410
N          0.94300        0.71150        0.05590
C          2.11840        1.61710        0.12550
C          2.02210        2.43380        1.42690
C          3.44760        0.83930        0.11090
C          2.15070        2.57190       -1.08940
Pt         2.65840       -1.88140       -0.01350
Br         2.59510       -1.88590       -2.52270
C          2.75040       -1.90590        2.11560
C          1.87510       -1.30670        2.91640
N          4.37500       -3.09110       -0.02470
C          5.40020       -2.89250        0.87380
F          5.38940       -1.87180        1.76350
C          6.57120       -3.64680        0.80750
C          6.70990       -4.61450       -0.17760
C          5.68350       -4.80660       -1.09660
C          4.52770       -4.02390       -1.01310
H         -0.65690       -2.97510        1.95700
H          0.77260       -3.42620        0.94840
H         -0.70870       -4.43450        0.90480
H         -2.83610       -2.33380        0.86170
H         -2.76080       -3.68500       -0.30520
H         -2.91160       -2.01940       -0.92260
H          0.63020       -3.23610       -1.56570
H         -0.84020       -2.53250       -2.36200
H         -0.85670       -4.17910       -1.63130
H         -2.23750        0.01570       -0.06270
H         -0.68900        2.13090        0.06340
H          2.02800        1.75160        2.30380
H          1.07650        3.01660        1.45460
H          2.86740        3.14690        1.52140
H          3.52220        0.16610        0.97550
H          4.31430        1.53190        0.16450
H          3.54350        0.25180       -0.82460
H          1.24620        3.21060       -1.14470
H          2.24030        1.99740       -2.03730
H          3.03600        3.24540       -1.02210
H          3.49100       -2.50150        2.62350
H          1.04400       -0.73130        2.53600
H          1.97410       -1.42570        3.98960
H          7.37910       -3.45540        1.50320
H          7.62030       -5.19570       -0.23950
H          5.78560       -5.55060       -1.87520
H          3.74350       -4.19440       -1.73210
