41

C          1.02400       -0.65300       -0.05500
N          1.04550        0.62200       -0.14300
C          2.25940        1.39150       -0.30910
C          2.25090        2.20300       -1.59800
C         -0.27810        1.18320        0.00790
C         -1.19980       -0.05120        0.05850
N         -0.27150       -1.15320        0.13160
C         -0.61530       -2.55000        0.29450
C         -1.45740       -3.05570       -0.87260
Pt         2.78020       -1.86970       -0.29550
Br         3.27480       -1.65660        2.23790
C          2.36960       -2.04670       -2.39850
C          1.37500       -1.41390       -3.02790
N          4.49560       -3.05820       -0.53040
C          4.94720       -3.79650        0.53240
C          6.09800       -4.58090        0.44130
C          6.81800       -4.60190       -0.74570
C          6.37260       -3.84860       -1.82600
C          5.20410       -3.08890       -1.70460
H          3.15300        0.72130       -0.32760
H          2.37710        2.07780        0.56060
H          2.17030        1.52350       -2.47160
H          3.19830        2.77920       -1.67950
H          1.40550        2.91960       -1.60350
H         -0.55870        1.84250       -0.84550
H         -0.30620        1.75060        0.95920
H         -1.78130       -0.15220       -0.88520
H         -1.87830       -0.00860        0.93540
H         -1.17990       -2.67300        1.24370
H          0.30910       -3.16400        0.35420
H         -2.40040       -2.47740       -0.96120
H         -1.71530       -4.12290       -0.70590
H         -0.88340       -2.97150       -1.81920
H          2.94790       -2.71280       -3.01850
H          0.69760       -0.73810       -2.53090
H          1.22120       -1.58120       -4.08950
H          4.41110       -3.82860        1.46070
H          6.42690       -5.16660        1.29070
H          7.72000       -5.19480       -0.82450
H          6.93670       -3.84090       -2.74970
H          4.93330       -2.48250       -2.54790
