63

P          1.27500        0.00000        0.00000
N          0.37090        1.53340       -0.24490
C          0.89770        2.61600        0.64920
C          2.41870        2.83850        0.43820
C          0.23950        3.98540        0.39810
C         -1.08750        1.40750       -0.30630
C         -1.50070       -0.00750       -0.03090
C         -3.04630       -0.09590       -0.04150
C         -0.89430       -0.96080       -1.13640
N          0.59870       -0.91210       -1.37620
C          1.12810       -2.32100       -1.40220
C          0.47840       -3.20540       -2.49300
C          2.64970       -2.43300       -1.58100
N          0.48830       -0.55790        1.56460
C          0.56160       -2.02230        2.04310
C          1.87010       -2.81670        2.07170
C          0.02650       -2.13620        3.50180
C         -1.00030       -0.33820        1.40440
Pt         3.73500        0.00030       -0.00050
Br         3.73440        0.91650       -2.42300
C          3.73550       -0.76020        2.01050
C          4.61940       -1.65480        2.47420
N          5.83500        0.00060       -0.00090
C          6.63440        0.23380       -1.06610
O          7.90440        0.26950       -0.73270
C          7.97220        0.10030        0.56330
C          6.69590       -0.08000        1.03750
H          0.73330        2.33420        1.71340
H          2.62650        3.12570       -0.61590
H          3.01870        1.95230        0.70050
H          2.79330        3.64770        1.10170
H          0.39430        4.30660       -0.65380
H          0.69410        4.74620        1.07040
H         -0.84080        4.00190        0.62530
H         -1.43550        1.73970       -1.30480
H         -1.58400        2.04160        0.45730
H         -3.45360        0.20150       -1.02890
H         -3.48190        0.56730        0.73710
H         -3.37920       -1.13420        0.17430
H         -1.38880       -0.74150       -2.10780
H         -1.24310       -1.96850       -0.81170
H          0.88500       -2.82390       -0.46320
H          0.71160       -2.82190       -3.50530
H         -0.62140       -3.29300       -2.39440
H          0.86290       -4.24830       -2.40480
H          2.96770       -2.06310       -2.57480
H          2.95290       -3.50010       -1.48360
H          3.20500       -1.90410       -0.79570
H         -0.08190       -2.65690        1.39810
H          2.44380       -2.57160        2.98570
H          2.45400       -2.77950        1.14150
H          1.66030       -3.89530        2.24620
H          0.64600       -1.51370        4.18800
H          0.07730       -3.19010        3.86940
H         -1.02530       -1.82840        3.63240
H         -1.31980        0.43140        2.14240
H         -1.60730       -1.22230        1.68310
H          3.02770       -0.31530        2.70320
H          5.36280       -2.10730        1.83160
H          4.60550       -1.93440        3.52400
H          6.30170        0.33710       -2.08410
H          8.87950        0.15170        1.15050
H          6.45590       -0.14090        2.08350
