66

P          1.27500        0.00000        0.00000
N          0.25330        1.50700        0.04210
C          0.63550        2.50680        1.12950
C         -0.01080        3.88330        0.90760
C          0.35510        2.08250        2.59300
C         -1.18720        1.30530       -0.11420
C         -1.53380       -0.16650       -0.01360
C         -3.06620       -0.29400       -0.02990
C         -0.92860       -0.90030       -1.23220
N          0.53460       -0.70050       -1.48190
C          1.18260       -2.00780       -1.82900
C          0.39260       -2.96870       -2.77450
C          2.51440       -1.75250       -2.55180
N          0.53670       -0.52360        1.53310
C          1.20260       -1.60370        2.30820
C          2.61120       -1.18050        2.76010
C          0.43350       -1.91730        3.61370
C         -0.93470       -0.75380        1.32190
Pt         3.73500        0.00030       -0.00050
Br         3.73540       -2.58690        0.11870
C          3.73470        2.14800       -0.09940
C          3.25130        2.77180       -1.17130
N          5.83500        0.00060       -0.00090
C          6.54850        1.18160       -0.00680
C          7.94690        1.20820       -0.04200
C          8.65650        0.02160       -0.11010
C          7.96190       -1.17420       -0.12100
C          6.56700       -1.16730       -0.04850
H          1.70530        2.68980        1.08440
H         -1.10590        3.87760        1.08170
H          0.20420        4.25810       -0.11100
H          0.41560        4.61140        1.63700
H         -0.70880        1.83100        2.76080
H          0.61880        2.91040        3.28740
H          1.01050        1.26170        2.92890
H         -1.48780        1.71630       -1.10750
H         -1.76020        1.86160        0.65280
H         -3.47720        0.12890       -0.97440
H         -3.51610        0.27370        0.81360
H         -3.36620       -1.35410        0.04610
H         -1.45780       -0.59890       -2.16300
H         -1.19380       -1.94890       -1.01560
H          1.30480       -2.58590       -0.88930
H          0.26810       -2.53250       -3.78380
H         -0.59820       -3.30200       -2.41570
H          0.96400       -3.91990       -2.86620
H          2.34440       -1.31640       -3.55410
H          3.06400       -2.71470       -2.67550
H          3.15760       -1.04200       -1.99880
H          1.24480       -2.51560        1.67380
H          2.57760       -0.36660        3.50980
H          3.22640       -0.79530        1.94400
H          3.12990       -2.05700        3.20810
H          0.40220       -1.01360        4.26470
H          0.93920       -2.73240        4.17240
H         -0.61100       -2.24410        3.44570
H         -1.47030       -0.29920        2.18360
H         -1.17050       -1.83640        1.31790
H          4.08950        2.72750        0.74800
H          2.86560        2.19770       -2.00590
H          3.22560        3.85640       -1.20440
H          6.09230        2.14450        0.03490
H          8.47670        2.15230       -0.02630
H          9.73760        0.02730       -0.16030
H          8.49900       -2.11190       -0.19500
H          6.13800       -2.13520       -0.08890
