44

C          1.02400       -0.65300       -0.05500
N          1.01950        0.64540       -0.07150
C          2.10440        1.61010       -0.15640
C          3.51170        1.05680       -0.27730
C         -0.32290        1.16930        0.06810
C         -1.22350       -0.04540       -0.06740
N         -0.31120       -1.14590        0.05130
C         -0.77280       -2.49960        0.28610
C         -1.78260       -2.94780       -0.77160
Pt         2.78020       -1.86970       -0.29550
Br         2.39720       -1.91640       -2.85660
C          3.09820       -1.83100        1.83050
C          2.07390       -1.65570        2.66880
N          4.49560       -3.05820       -0.53040
C          4.88660       -3.51450       -1.77850
C          5.96410       -4.39900       -1.97140
C          6.28480       -4.95920       -3.32870
C          6.72260       -4.79560       -0.88130
C          6.37240       -4.33610        0.36990
C          5.27450       -3.50160        0.52520
H          2.07160        2.26150        0.74860
H          1.91970        2.26210       -1.03920
H          3.78140        0.47550        0.62310
H          4.20620        1.92640       -0.34450
H          3.61630        0.45400       -1.19930
H         -0.57800        1.92900       -0.70370
H         -0.41150        1.61690        1.08440
H         -1.66020       -0.08170       -1.09350
H         -2.02730       -0.02920        0.69930
H         -1.31020       -2.50050        1.26370
H          0.07580       -3.20990        0.35460
H         -2.63830       -2.23950       -0.83820
H         -2.20770       -3.93640       -0.49070
H         -1.30200       -3.02600       -1.76920
H          4.04070       -1.89240        2.33240
H          1.05620       -1.58020        2.31910
H          2.24440       -1.62100        3.74030
H          4.37690       -3.28750       -2.66840
H          5.58060       -4.59320       -4.10620
H          6.19720       -6.06690       -3.29080
H          7.31940       -4.68780       -3.62190
H          7.56000       -5.47350       -0.99780
H          6.95040       -4.64950        1.23600
H          5.09890       -3.28380        1.53880
