57

P          0.91610        0.03340        0.04290
C          0.12200        1.76080       -0.03310
C         -1.38650        2.00940       -0.17660
C          0.57490        2.64790        1.14740
C          0.49310       -0.82730       -1.57170
C         -1.01870       -1.01050       -1.84670
C          1.12740       -0.18040       -2.79700
C          0.37080       -0.73980        1.68180
C          0.76200        0.01110        2.95760
C         -1.14530       -1.03970        1.77740
Pt         3.37610        0.03340        0.04290
Br         3.30730       -2.44560        0.19870
C          3.38420        2.11030       -0.22880
C          3.82920        2.97590        0.68920
N          5.47610        0.03340        0.04290
C          6.32640       -1.01860        0.00770
N          7.61360       -0.60480       -0.13690
C          8.79440       -1.40550       -0.39540
C          8.70940       -2.79730       -0.55530
C          9.84040       -3.54660       -0.89690
C         11.07370       -2.91810       -1.07250
C         11.18350       -1.54050       -0.90130
C         10.06100       -0.78610       -0.56000
C          7.56380        0.73810       -0.13470
C          6.27060        1.12330       -0.03500
H          0.59690        2.19570       -0.93770
H         -1.95550        1.68020        0.70590
H         -1.83100        1.62590       -1.09240
H         -1.55050        3.10930       -0.24830
H         -0.08590        2.55480        2.02090
H          0.52590        3.72200        0.86510
H          1.58650        2.41890        1.49870
H          0.89880       -1.85640       -1.48330
H         -1.52790       -0.07790       -2.10520
H         -1.56140       -1.50610       -1.03300
H         -1.17120       -1.65850       -2.73420
H          0.77640        0.86360       -2.92230
H          0.83240       -0.75350       -3.70700
H          2.23060       -0.21450       -2.71790
H          0.88310       -1.72050        1.72010
H          0.10090        0.86990        3.15340
H          1.82470        0.31360        2.94730
H          0.58670       -0.65240        3.83310
H         -1.76500       -0.12810        1.75370
H         -1.38560       -1.54280        2.73830
H         -1.49050       -1.74000        1.00590
H          2.99870        2.49730       -1.16560
H          4.22390        2.62430        1.63610
H          3.80690        4.04300        0.48610
H          6.01320       -2.04600        0.00390
H          7.76790       -3.31870       -0.45590
H          9.75710       -4.61510       -1.03940
H         11.94610       -3.49570       -1.34920
H         12.13720       -1.04810       -1.04430
H         10.19520        0.27830       -0.46440
H          8.39640        1.41950       -0.24500
H          5.97200        2.15070       -0.06970
