58

C          1.02400       -0.65300       -0.05500
N          0.05800       -0.95930        0.72240
C         -0.00250       -2.12340        1.57740
C         -1.00390        0.04040        0.68150
C         -0.39630        1.18550       -0.13950
N          0.79810        0.60190       -0.67590
C          1.63200        1.22250       -1.67250
Pt         2.78020       -1.86970       -0.29550
Br         4.26220        0.12530        0.43340
C          1.54990       -3.52590       -0.90060
C          0.54570       -3.34240       -1.75570
P          4.78960       -3.26190       -0.57060
O          5.99200       -3.37580       -1.80540
C          7.12490       -4.21700       -1.66640
C          6.86290       -5.70330       -1.34690
C          7.82210       -4.15840       -3.04150
O          5.96740       -2.26520        0.18690
C          6.07720       -2.43130        1.60520
C          5.88910       -3.85460        2.17140
C          7.47510       -1.94450        2.01930
O          4.24890       -4.91920       -0.75020
C          3.61600       -5.38310       -1.98170
C          4.12000       -4.89900       -3.34520
C          3.44210       -6.90350       -1.88130
H          0.93940       -2.71110        1.53400
H         -0.86790       -2.76150        1.30950
H         -0.12240       -1.78400        2.63080
H         -1.28620        0.39840        1.69760
H         -1.87420       -0.41540        0.17370
H         -0.08490        2.03290        0.51330
H         -1.09890        1.52540       -0.92220
H          1.17720        2.18550       -2.00050
H          1.70730        0.56170       -2.56230
H          2.64430        1.44890       -1.29030
H          1.74020       -4.49140       -0.45000
H          0.39180       -2.36540       -2.20150
H         -0.07740       -4.17580       -2.06040
H          7.80990       -3.79440       -0.90590
H          6.25630       -6.20620       -2.11650
H          6.39790       -5.83870       -0.35410
H          7.82330       -6.25580       -1.33140
H          7.16340       -4.54790       -3.84830
H          8.75320       -4.75670       -3.05860
H          8.05930       -3.10780       -3.30980
H          5.33920       -1.77450        2.10680
H          6.62630       -4.56210        1.74080
H          4.85780       -4.22410        2.00310
H          6.03190       -3.82950        3.27580
H          8.26370       -2.58130        1.56110
H          7.59730       -1.98030        3.12470
H          7.63690       -0.89550        1.69350
H          2.58750       -5.12360       -2.09570
H          5.11740       -5.25150       -3.61050
H          4.05410       -3.79210       -3.40430
H          3.43700       -5.28950       -4.13610
H          4.40270       -7.44620       -1.87680
H          2.80540       -7.28690       -2.71020
H          2.90550       -7.13850       -0.93160
