56

C          0.90100       -0.64300       -0.00200
N          0.55460        0.25510       -0.96550
C          1.20030        0.55560       -2.23660
C          1.04590       -0.62090       -3.20170
C         -0.61510        0.80340       -0.56790
C         -0.99790        0.23030        0.61690
N         -0.05760       -0.67760        0.96240
C         -0.06290       -1.50770        2.16030
C         -0.11170       -0.62400        3.41650
Pt         2.65840       -1.88140       -0.01350
Br         3.96200       -0.04340        1.26340
C          1.57630       -3.40720       -1.07350
C          0.24870       -3.41200       -1.22070
P          4.66930       -3.29850       -0.02670
N          5.77430       -3.26810        1.42220
C          6.57130       -2.05230        1.77690
C          4.92660       -3.51940        2.61510
N          4.56630       -5.13610       -0.13340
C          3.33810       -5.88230       -0.47030
C          5.45120       -5.95330        0.73110
N          6.00620       -2.41790       -0.82160
C          7.08330       -3.41160       -1.13900
C          5.61410       -1.72960       -2.04770
H          2.26610        0.83600       -2.09090
H          0.67880        1.41460       -2.71570
H          1.61460       -1.49900       -2.85250
H          1.41270       -0.34600       -4.20950
H         -0.03060       -0.89630       -3.29220
H         -1.17310        1.55660       -1.11230
H         -1.89280        0.44040        1.18300
H          0.83830       -2.15110        2.20960
H         -0.96570       -2.16880        2.15540
H         -1.03290        0.00300        3.41540
H         -0.12140       -1.25000        4.32820
H          0.77350        0.04640        3.43940
H          2.09870       -4.19610       -1.54080
H         -0.38670       -2.66490       -0.77210
H         -0.23110       -4.21430       -1.77130
H          7.15030       -1.58880        0.95990
H          7.33130       -2.33580        2.53340
H          5.98430       -1.26190        2.27280
H          4.19630       -4.33600        2.47960
H          4.29780       -2.63480        2.86570
H          5.56020       -3.76430        3.49590
H          2.43050       -5.51070        0.04460
H          3.36530       -6.94350       -0.13220
H          3.27860       -5.96500       -1.57820
H          5.04140       -6.11070        1.75340
H          6.47200       -5.53960        0.78070
H          5.54870       -6.97740        0.31230
H          7.80440       -3.49660       -0.30280
H          7.68390       -3.14460       -2.03830
H          6.68900       -4.43160       -1.35490
H          4.89770       -0.92210       -1.81040
H          5.21570       -2.43360       -2.80800
H          6.51800       -1.23020       -2.47490
