38

C         -0.32800       -1.08200        0.00300
N          0.35210       -0.44020        0.98700
H          0.64010       -0.79590        1.92330
C          0.48490        0.83750        0.58980
Cl         1.23340        2.10990        1.53450
C         -0.08550        0.97040       -0.64540
Cl        -0.11570        2.40660       -1.65260
N         -0.63160       -0.20400       -0.98820
Pt        -0.94440       -3.14170        0.01670
Br        -2.69680       -2.31760       -1.60400
C          0.73470       -3.55260        1.26110
C          1.86620       -2.82100        1.33820
C         -1.56080       -5.20140        0.03030
N         -0.75740       -6.29820        0.17610
C          0.69340       -6.43450        0.17980
C         -1.55260       -7.37360        0.06470
C         -2.83230       -6.96170       -0.16810
N         -2.85460       -5.61820       -0.19300
C         -4.07690       -4.85270       -0.30480
C         -4.24510       -3.63070        0.37240
C         -5.40180       -2.86330        0.18510
C         -6.42870       -3.33530       -0.63420
C         -6.30560       -4.58000       -1.25620
C         -5.14310       -5.33940       -1.08920
H         -1.09850       -0.36660       -1.90230
H          0.74740       -4.47020        1.82540
H          2.06600       -1.94840        0.73080
H          2.69110       -3.13130        1.96790
H          1.20810       -5.50000       -0.09390
H          0.98140       -7.11900       -0.66140
H          1.05700       -6.88150        1.12130
H         -1.21170       -8.40940        0.10410
H         -3.68860       -7.60920       -0.28790
H         -3.44670       -3.23820        0.99230
H         -5.49250       -1.89450        0.65950
H         -7.31850       -2.73740       -0.78790
H         -7.10660       -4.94990       -1.88320
H         -5.06540       -6.28180       -1.61100
