55

C          2.32700        0.03400        0.00000
N          1.53580        1.13590        0.06510
C          1.96930        2.54220        0.04960
C          2.92370        2.83910       -1.11930
C          2.28530        2.67010       -2.51000
C          3.29100        2.99980       -3.61530
C          0.27510        0.66330        0.04220
C          0.30800       -0.70850       -0.02190
C         -0.86260       -1.48320       -0.04370
C         -2.09230       -0.81350       -0.01330
C         -2.14260        0.59440        0.03370
C         -0.95110        1.35000        0.07370
N          1.59220       -1.12330       -0.07890
C          2.04350       -2.53850       -0.13550
C          3.32420       -2.87160        0.65980
C          3.24150       -2.66430        2.17010
C          2.19840       -3.55830        2.83030
Pt         4.47690        0.05800        0.00140
Br         4.46000        1.43390        2.19570
C          4.49080       -1.08410       -1.82010
C          3.44900       -1.26340       -2.63380
O          6.52670        0.08100        0.00280
C          7.25790        0.55720       -0.97470
C          8.58630        0.43550       -0.62480
C          8.60510       -0.18440        0.61040
C          7.28510       -0.36170        0.97510
H          2.48380        2.77140        0.99270
H          1.09570        3.22660       -0.00170
H          3.81510        2.18150       -1.04580
H          3.27120        3.89270       -1.02440
H          1.41470        3.35380       -2.60710
H          1.93660        1.62530       -2.64930
H          3.64440        4.04830       -3.51550
H          2.81320        2.88330       -4.61220
H          4.16690        2.31680       -3.56130
H         -0.84580       -2.56450       -0.09560
H         -3.01470       -1.38230       -0.02670
H         -3.09330        1.10160        0.05690
H         -0.99080        2.42500        0.09440
H          2.20350       -2.82070       -1.18480
H          1.23460       -3.21950        0.18820
H          4.17400       -2.27300        0.30040
H          3.57970       -3.93650        0.45960
H          3.03370       -1.59830        2.39550
H          4.23650       -2.92440        2.59540
H          1.17940       -3.30430        2.47430
H          2.23380       -3.40720        3.92820
H          2.41280       -4.62680        2.60950
H          5.44880       -1.48380       -2.13590
H          2.48000       -0.83140       -2.43250
H          3.57240       -1.82170       -3.55540
H          6.86520        1.01960       -1.87090
H          9.44130        0.76100       -1.20230
H          9.48060       -0.46990        1.17790
H          6.92190       -0.83600        1.87720
