27

C         -0.32800       -1.08200        0.00300
N         -0.84700       -0.16990        0.85290
H         -1.52060       -0.34210        1.63010
C         -0.19240        0.97990        0.60690
Cl        -0.36650        2.45400        1.53980
C          0.63530        0.78690       -0.46950
Cl         1.61530        1.99300       -1.28200
N          0.56170       -0.50180       -0.83330
Pt        -0.94440       -3.14170        0.01670
Br        -3.27590       -2.43810        0.89830
C          0.99100       -3.72570       -0.71520
C          2.11890       -3.01800       -0.86800
N         -1.54650       -5.15350        0.03000
C         -0.64180       -6.21500        0.12630
F          0.65440       -6.05850        0.44010
C         -1.04250       -7.55150        0.14390
C         -2.38550       -7.88240        0.05470
F         -2.77170       -9.17970        0.06490
C         -3.30340       -6.86240       -0.02070
C         -2.88630       -5.52620       -0.01990
F         -3.89300       -4.66830       -0.23580
H          1.02110       -0.90620       -1.67680
H          1.15620       -4.72740       -1.04350
H          2.27670       -2.01070       -0.54890
H          3.00020       -3.49600       -1.28420
H         -0.30780       -8.34180        0.25320
H         -4.35360       -7.10260       -0.10310
