50

C         -0.17870       -1.37750        0.00460
N          0.98740       -0.69080       -0.07980
C          2.34240       -1.21620       -0.19450
C          0.65670        0.62970       -0.03190
C          1.60270        1.80060       -0.09160
C         -0.71690        0.72780        0.08400
C         -1.51830        2.00390        0.16120
N         -1.22380       -0.52380        0.10950
C         -2.62630       -0.90640        0.20960
Pt        -0.49020       -3.48260       -0.01010
Br        -0.33590       -3.51430        2.57520
C         -0.61820       -3.45640       -2.15610
C         -0.26140       -2.40070       -2.89450
P         -1.22240       -5.81950        0.03140
C         -2.08800       -6.90850        1.20200
C         -2.28430       -6.13200       -1.42970
C          0.40830       -6.79670       -0.12680
C          1.30360       -6.62110        1.11230
C          0.12780       -8.31280       -0.32760
C          1.22520       -6.35350       -1.36310
H          2.33440       -2.32300       -0.20610
H          2.94850       -0.86340        0.66900
H          2.80690       -0.83730       -1.12870
H          2.66120        1.48800       -0.17970
H          1.49990        2.41870        0.82670
H          1.35420        2.43920       -0.96730
H         -0.86900        2.90380        0.11940
H         -2.08930        2.03930        1.11270
H         -2.22410        2.05650       -0.69400
H         -3.28190       -0.01290        0.26950
H         -2.78020       -1.51930        1.12030
H         -2.91120       -1.48920       -0.68980
H         -0.99960       -4.26630       -2.72610
H          0.11420       -1.48460       -2.46840
H         -0.37700       -2.43340       -3.97340
H         -3.07310       -6.43020        1.38660
H         -1.54370       -6.93800        2.16570
H         -2.29500       -7.91860        0.80960
H         -3.16380       -5.45840       -1.41620
H         -2.63280       -7.18330       -1.41810
H         -1.74110       -6.08110       -2.38440
H          0.78130       -6.92770        2.03890
H          1.63640       -5.56730        1.20880
H          2.21830       -7.25310        1.02040
H         -0.36820       -8.77960        0.54290
H          1.07090       -8.88750       -0.46030
H         -0.49170       -8.48180       -1.23550
H          1.53870       -5.29350       -1.29300
H          0.65710       -6.50760       -2.30420
H          2.15490       -6.96820       -1.44990
