75

C          1.02400       -0.65300       -0.05500
N          0.95650        0.65400        0.04090
C          1.96800        1.75480        0.01570
C          3.21060        1.79850       -0.74260
C          3.82970        0.68780       -1.49180
C          3.98440        2.98280       -0.82580
C          3.60390        4.14860       -0.17430
C          4.39740        5.42650       -0.26730
C          2.48840        4.11950        0.62720
C          1.70140        2.96100        0.75830
C          0.68560        3.06780        1.85360
C         -0.46350        0.97570        0.15760
C         -1.20100       -0.28910       -0.20220
N         -0.28260       -1.35060        0.11400
C         -0.81710       -2.69650        0.59740
C         -2.12860       -3.18600        0.18210
C         -3.01480       -2.52970       -0.82230
C         -2.69020       -4.40020        0.67970
C         -2.02920       -5.21850        1.57080
C         -2.59490       -6.52400        2.07150
C         -0.80180       -4.82220        2.00140
C         -0.20390       -3.63220        1.55910
C          1.05230       -3.44860        2.22240
Pt         2.78020       -1.86970       -0.29550
Br         2.40030       -1.91180       -2.85710
C          3.09560       -1.83480        1.83100
C          3.94070       -2.59070        2.54680
N          4.49560       -3.05820       -0.53040
C          4.59300       -4.32130       -1.11390
N          3.43350       -5.20430       -1.26290
C          2.07210       -4.77280       -1.00740
C          3.59400       -6.66680       -1.10490
C          5.87650       -4.92360       -1.19140
C          6.99950       -4.28540       -0.68760
C          6.85940       -3.06920       -0.04800
C          5.59610       -2.49720        0.05770
H          3.24590       -0.17320       -1.31540
H          4.84700        0.48370       -1.08720
H          3.91930        0.91630       -2.57760
H          4.89500        3.00600       -1.41740
H          5.30890        5.31290       -0.88970
H          4.70170        5.74510        0.75230
H          3.76510        6.22630       -0.71080
H          2.23580        5.01260        1.18870
H         -0.24350        3.57990        1.53430
H          0.59560        2.09800        2.37800
H          1.13240        3.63800        2.69650
H         -0.78540        1.79050       -0.53130
H         -0.76160        1.18870        1.19130
H         -1.31150       -0.26530       -1.30230
H         -2.18010       -0.34010        0.32620
H         -2.44340       -2.01650       -1.60500
H         -3.79920       -1.92930       -0.31380
H         -3.53360       -3.31020       -1.41860
H         -3.66830       -4.72760        0.34720
H         -3.59950       -6.72700        1.65130
H         -2.66560       -6.51970        3.18200
H         -1.91650       -7.35520        1.77390
H         -0.30720       -5.48270        2.71320
H          1.39090       -4.23110        2.94470
H          0.97460       -2.51320        2.81150
H          1.72970       -3.56390        1.37400
H          2.54160       -1.06770        2.36420
H          4.55160       -3.36690        2.11320
H          4.02720       -2.42480        3.61570
H          1.96900       -3.69680       -0.91760
H          1.69550       -5.22140       -0.05870
H          1.41040       -5.13990       -1.81670
H          4.47600       -6.94930       -0.48800
H          3.59790       -7.18180       -2.08300
H          2.77470       -7.11570       -0.49130
H          6.02460       -5.92320       -1.57880
H          7.97140       -4.76040       -0.74630
H          7.72680       -2.56640        0.36050
H          5.51210       -1.52280        0.51990
