58

P          0.93160        0.06140       -0.03950
C         -0.05780       -0.02510       -1.78730
C         -1.61370       -0.07550       -1.83790
C          0.26330        1.16600       -2.74910
C          0.37480       -1.28220       -2.58770
C          0.58540       -1.74160        0.76490
C          1.29390       -2.90720        0.02090
C          1.08880       -1.91930        2.22180
C         -0.92780       -2.11460        0.89420
C          0.16870        1.64300        0.81080
C         -1.38770        1.55950        0.94230
C          0.68510        1.78560        2.25310
C          0.45690        3.01250        0.15600
Pt         3.39160        0.06140       -0.03950
Br         3.39160        0.00790        2.55000
C          3.39160        0.10580       -2.18900
C          3.79560       -0.81820       -3.05920
O          5.44160        0.06140       -0.03950
C          6.01530        1.10550       -0.77070
C          5.66650        2.40280        0.00110
C          7.53880        0.92760       -0.68990
H         -2.11300        0.86830       -1.62500
H         -2.09110       -0.87860       -1.28700
H         -1.94390       -0.25580       -2.88860
H         -0.13580        2.12520       -2.44140
H         -0.22370        1.02450       -3.74090
H          1.29920        1.30510       -3.01800
H         -0.19670       -2.16650       -2.27700
H          1.44990       -1.48350       -2.53650
H          0.11390       -1.20820       -3.66900
H          2.38320       -2.71590       -0.06480
H          0.89770       -3.17360       -0.95320
H          1.15620       -3.85560        0.59020
H          2.17120       -2.10550        2.26700
H          0.72380       -2.86680        2.68150
H          0.72880       -1.14250        2.91650
H         -1.40670       -2.27740       -0.05880
H         -1.47550       -1.42300        1.55800
H         -1.04660       -3.10150        1.38910
H         -1.75400        0.57270        1.23030
H         -1.90290        1.89600        0.04090
H         -1.78880        2.27160        1.69190
H          0.46970        0.90420        2.86490
H          0.18190        2.62930        2.77710
H          1.75720        2.04250        2.24830
H         -0.07100        3.18320       -0.78040
H          1.54460        3.19090        0.02720
H          0.03930        3.83090        0.78570
H          3.21500        1.09110       -2.58030
H          4.11630       -1.80670       -2.76290
H          3.81360       -0.54220       -4.11480
H          5.69640        1.15360       -1.82980
H          5.98660        2.32080        1.06150
H          4.56110        2.56000        0.00090
H          6.15830        3.28990       -0.44160
H          7.85500        0.84450        0.38030
H          8.07350        1.78480       -1.13910
H          7.83840       -0.00900       -1.20050
