50

C          1.02400       -0.65300       -0.05500
N          0.91980        0.51950       -0.54870
C          1.98070        1.20090       -1.25300
C         -0.35290        1.11710       -0.22710
C         -1.12990       -0.02060        0.45710
N         -0.13020       -1.04190        0.66180
C         -0.33140       -2.27070        1.37710
C         -1.57680       -2.54140        1.99090
C         -1.77230       -3.72050        2.71920
C         -0.73900       -4.64650        2.84750
C          0.49380       -4.39980        2.24260
C          0.69440       -3.22450        1.51230
Pt         2.78020       -1.86970       -0.29550
Br         3.69550       -0.99520        1.96400
C          2.02040       -2.59570       -2.17110
C          0.84510       -2.22730       -2.69190
N          4.49560       -3.05820       -0.53040
C          4.90480       -3.46610       -1.76760
C          5.97110       -4.33540       -1.94350
C          6.64420       -4.87650       -0.83760
N          7.69070       -5.86320       -1.00820
C          8.62290       -6.21280        0.05310
C          7.86580       -6.61080       -2.25050
C          6.23690       -4.41590        0.43410
C          5.19650       -3.48700        0.56040
H          2.88240        0.55680       -1.34720
H          2.26550        2.11390       -0.68510
H          1.63490        1.49750       -2.26370
H         -0.88890        1.49310       -1.12420
H         -0.16410        1.94770        0.48830
H         -1.90500       -0.44060       -0.22430
H         -1.58910        0.33670        1.40310
H         -2.40030       -1.84540        1.91820
H         -2.72950       -3.91290        3.18860
H         -0.89030       -5.55470        3.41650
H          1.29690       -5.11730        2.34310
H          1.66190       -3.07540        1.07200
H          2.51600       -3.34640       -2.75750
H          0.18670       -1.51150       -2.22810
H          0.51640       -2.66360       -3.63110
H          4.47500       -3.07540       -2.66480
H          6.23700       -4.55870       -2.96310
H          8.51900       -5.60630        0.96620
H          9.66100       -6.05290       -0.30460
H          8.49540       -7.28270        0.32470
H          7.09770       -6.41950       -3.01760
H          7.79590       -7.69920       -2.04170
H          8.86150       -6.38890       -2.68750
H          6.66180       -4.78510        1.35250
H          4.89140       -3.23630        1.55770
