70

P          1.06310       -0.02540        0.07330
C          0.08210        1.71960        0.37440
C         -1.47230        1.74790        0.43530
C          0.50770        2.35900        1.73490
C          0.35160        2.84160       -0.70040
C          0.68300       -0.42780       -1.83910
C          1.38090        0.53710       -2.82450
C          1.14970       -1.82830       -2.31920
C         -0.82810       -0.45670       -2.21040
C          0.30400       -1.19640        1.45340
C         -1.24340       -1.34240        1.32810
C          0.85940       -2.62010        1.30670
C          0.56040       -0.83390        2.93730
Pt         3.52310       -0.02540        0.07330
Br         3.52310       -2.54520       -0.52560
C          3.52310        2.06640        0.57040
C          4.10750        2.75320        1.55270
C          5.67310       -0.02540        0.07330
N          6.43180        0.70370       -0.69840
C          6.05090        1.26650       -1.97710
C          5.40890        2.63030       -1.96730
C          7.82430        0.41330       -0.41740
C          7.77520       -0.30200        0.91790
N          6.45310       -0.86460        0.91950
C          5.96930       -1.75490        1.96700
C          4.75870       -1.23220        2.74350
H         -1.90390        1.31330        1.32530
H         -1.98580        1.40450       -0.46240
H         -1.82740        2.80010        0.55550
H          0.08020        1.86640        2.60160
H          0.12310        3.39660        1.84790
H          1.57850        2.41780        1.91570
H         -0.19090        2.65510       -1.63650
H          1.35700        3.15290       -0.96320
H         -0.08410        3.81290       -0.36730
H          2.47430        0.55250       -2.65110
H          1.00990        1.55730       -2.82700
H          1.20530        0.20190       -3.87470
H          2.22820       -1.85670       -2.50220
H          0.78100       -2.06290       -3.34340
H          0.76760       -2.66080       -1.71080
H         -1.31940        0.51120       -2.12740
H         -1.38710       -1.26320       -1.70850
H         -0.97120       -0.70160       -3.28750
H         -1.60190       -1.41430        0.30130
H         -1.79900       -0.56390        1.85110
H         -1.63220       -2.23680        1.85540
H          0.68690       -3.03790        0.31070
H          0.34640       -3.32200        2.00400
H          1.92520       -2.64880        1.58900
H         -0.01340        0.02390        3.29570
H          1.63440       -0.72200        3.17210
H          0.14410       -1.63610        3.59350
H          3.02980        2.66400       -0.12950
H          4.69230        2.31130        2.34180
H          3.96760        3.83860        1.53850
H          5.40320        0.54580       -2.54240
H          6.96700        1.37520       -2.59390
H          4.37010        2.53500       -1.67790
H          5.36450        3.01080       -3.01180
H          5.99200        3.32770       -1.33570
H          8.47510        1.31760       -0.41700
H          8.17500       -0.29690       -1.19700
H          7.82430        0.46000        1.73520
H          8.60260       -1.04000        1.03460
H          6.79250       -1.94660        2.69540
H          5.70750       -2.72870        1.49960
H          4.99830       -0.28610        3.27370
H          4.46290       -1.99520        3.48560
H          3.90250       -1.06730        2.06460
