34

P          1.08800        0.04710       -0.00560
O         -0.35260       -0.75690        0.45160
C         -0.13860       -2.15130        0.23620
O          0.77520        1.49610        0.84490
C          0.79620        1.26890        2.23310
O          0.80210       -0.11060       -1.69020
C         -0.54050        0.28090       -1.97270
Pt         3.54800        0.04710       -0.00560
Br         3.54800        2.27270       -1.33040
C          3.54800       -1.80040        1.09400
C          3.41670       -3.00590        0.54290
N          5.64800        0.04710       -0.00560
C          6.45690        1.12320       -0.35780
F          6.01080        2.36410       -0.61420
C          7.85380        1.03880       -0.38090
C          8.48160       -0.14880       -0.06040
C          7.70990       -1.22850        0.30800
C          6.31460       -1.11200        0.34880
H         -0.50280       -2.73800        1.10140
H          0.92370       -2.46680        0.11490
H         -0.65840       -2.48580       -0.68300
H          0.08750        1.98530        2.70170
H          1.81060        1.46980        2.63150
H          0.44120        0.26220        2.54480
H         -0.66900        0.42100       -3.06380
H         -0.83070        1.23560       -1.47720
H         -1.27210       -0.51480       -1.70830
H          3.66210       -1.72460        2.17070
H          3.29820       -3.12280       -0.52610
H          3.42750       -3.88450        1.18340
H          8.44650        1.90600       -0.64050
H          9.56200       -0.22020       -0.09410
H          8.18260       -2.16620        0.55970
H          5.82260       -2.01290        0.61760
