29

N         -1.39310       -0.09730       -0.06450
C         -0.63130       -1.23530        0.27920
C          0.69890       -1.08030        0.70240
C          1.31480        0.04940        0.51240
Cl         2.99620        0.24840        1.06160
C          0.65640        1.11000       -0.12400
C         -0.75100        1.06980       -0.27550
Pt        -3.47630       -0.20030       -0.28280
Br        -3.16070       -0.76090       -2.79180
C         -3.72330        0.26860        1.80120
C         -2.63230        0.47740        2.58590
N         -5.56130       -0.29140       -0.51000
C         -6.17000        0.28120       -1.60870
F         -5.42740        0.88900       -2.52960
C         -7.48460        0.23100       -1.75680
C         -8.25950       -0.36840       -0.86840
F         -9.57530       -0.40080       -1.05980
C         -7.71840       -0.96120        0.25600
C         -6.34470       -0.92190        0.44590
F         -5.79090       -1.47770        1.51980
H         -1.05510       -2.17480        0.22700
H          1.18780       -1.86310        1.16430
H          1.19400        1.91570       -0.48020
H         -1.27480        1.92020       -0.53540
H         -4.67070        0.33800        2.20530
H         -1.68520        0.40890        2.18160
H         -2.75140        0.70360        3.58580
H         -7.91500        0.67010       -2.58560
H         -8.32820       -1.42740        0.94580
