25

N         -1.39000       -0.11200       -0.05400
C         -0.76980        1.09620       -0.13330
C          0.62730        1.16890       -0.10030
Cl         1.44350        2.70220       -0.34410
C          1.36760        0.00000        0.09600
C          0.70960       -1.22480        0.21500
C         -0.68100       -1.26510        0.09510
Pt        -3.47560       -0.20170       -0.28210
Br        -3.77410        0.34600        2.23170
C         -3.22790       -0.65640       -2.36880
C         -2.07670       -0.97720       -2.96110
C         -5.61100       -0.29360       -0.51560
N         -6.48550        0.10450        0.42920
C         -7.69090       -0.12530       -0.12170
C         -7.50570       -0.65390       -1.37850
O         -6.21560       -0.74600       -1.59170
H         -1.35810        1.98660       -0.31210
H          2.44850        0.03730        0.14390
H          1.27100       -2.13520        0.38100
H         -1.20490       -2.20860        0.17230
H         -4.10920       -0.59070       -2.99670
H         -1.14250       -1.03520       -2.42780
H         -2.06380       -1.16450       -4.03060
H         -8.63820        0.07880        0.36060
H         -8.27420       -0.94750       -2.08120
