53

N         -1.51210        0.24730       -0.05160
C         -1.03020        1.43640       -0.53110
C          0.33010        1.76800       -0.37330
C          0.89860        3.05610       -0.89990
C          1.17040        0.86550        0.28750
C          0.65850       -0.33960        0.76760
C         -0.69600       -0.63260        0.58520
Pt        -3.47560       -0.20170       -0.28210
Br        -4.04310        0.85450        2.01370
C         -3.00460       -1.07860       -2.18780
C         -1.78290       -1.27810       -2.68480
P         -5.75340       -0.65380       -0.58440
N         -6.64570       -1.92100       -1.41120
C         -6.23040       -3.13280       -0.66700
C         -8.09630       -1.85970       -1.53970
O         -6.02600        0.67490       -1.57640
C         -6.23460        1.92940       -1.02730
C         -5.41760        3.00070       -1.45640
C         -5.57210        4.30270       -0.94850
C         -6.56110        4.58080       -0.01520
C         -7.39960        3.56120        0.41450
C         -7.25480        2.22680       -0.06110
C         -8.21900        1.23110        0.48270
C         -9.58090        1.62230        0.58020
C        -10.54630        0.75290        1.08110
C        -10.16910       -0.49870        1.55080
C         -8.83060       -0.88770        1.51040
C         -7.84700       -0.06470        0.94500
O         -6.58550       -0.57320        0.87590
H         -1.70390        2.12100       -1.03170
H          0.12150        3.67950       -1.38860
H          1.68470        2.82560       -1.64940
H          1.35750        3.64420       -0.07570
H          2.22010        1.09590        0.43010
H          1.30800       -1.04020        1.27570
H         -1.09820       -1.56610        0.94740
H         -3.85120       -1.33130       -2.81820
H         -0.88380       -0.99970       -2.15600
H         -1.68370       -1.68900       -3.68600
H         -5.11400       -3.20140       -0.60170
H         -6.57420       -4.06430       -1.14820
H         -6.59880       -3.10840        0.38890
H         -8.40970       -0.90440       -1.99840
H         -8.60720       -2.06830       -0.59150
H         -8.41020       -2.69460       -2.20350
H         -4.64070        2.82810       -2.18420
H         -4.92590        5.10810       -1.27760
H         -6.68190        5.58810        0.37900
H         -8.15640        3.82500        1.14980
H         -9.91590        2.59620        0.23480
H        -11.58860        1.05110        1.10710
H        -10.91690       -1.17690        1.93760
H         -8.55460       -1.86870        1.86930
