20

N         -1.39000       -0.11200       -0.05400
C         -0.79580        1.05560        0.32170
C          0.59940        1.14760        0.38840
C          1.37520        0.03690        0.05190
F          2.72900        0.11250        0.09310
C          0.75150       -1.14770       -0.34150
C         -0.64510       -1.20280       -0.38940
Pt        -3.47560       -0.20170       -0.28210
Br        -3.19140        0.67730       -2.57960
C         -3.68770       -0.92400        1.67580
C         -2.69610       -1.08840        2.56400
C         -5.61100       -0.29360       -0.51560
O         -6.82070       -0.34570       -0.64790
H         -1.40350        1.91720        0.56120
H          1.07530        2.07380        0.68410
H          1.34450       -2.00980       -0.61970
H         -1.13600       -2.10890       -0.71730
H         -4.69360       -1.14970        2.00510
H         -1.65890       -0.86160        2.35370
H         -2.94170       -1.42480        3.57140
