40

N         -1.43480       -0.09970       -0.07720
C         -0.74700        0.93490       -0.64670
C          0.66180        0.95260       -0.65620
C          1.36110       -0.06760       -0.00240
C          2.86730       -0.13140       -0.04790
C          0.63490       -1.06350        0.66350
C         -0.76180       -1.08580        0.59210
Pt        -3.47560       -0.20170       -0.28210
Br        -3.18030       -1.63500       -2.41900
C         -3.72080        0.98800        1.49190
C         -2.71230        1.45480        2.23670
N         -5.49910       -0.32460       -0.53760
C         -6.13820       -1.52590       -0.75800
N         -5.44020       -2.78700       -0.61980
C         -5.83940       -3.99430       -1.32210
C         -4.34160       -2.98320        0.31770
C         -7.53470       -1.50510       -0.98950
C         -8.23950       -0.30340       -1.04250
C         -7.58110        0.88970       -0.79110
C         -6.21370        0.85290       -0.46540
H         -1.26340        1.73170       -1.19620
H          1.21140        1.72560       -1.18590
H          3.28980        0.67130       -0.69070
H          3.17450       -1.10220       -0.49680
H          3.31340       -0.04850        0.96490
H          1.14900       -1.84820        1.20200
H         -1.32560       -1.86470        1.05560
H         -4.72810        1.25430        1.79170
H         -1.67510        1.26670        2.00210
H         -2.92060        2.07380        3.10460
H         -6.68470       -3.84090       -2.01270
H         -6.07030       -4.80900       -0.59750
H         -4.98850       -4.35640       -1.94250
H         -4.02800       -2.06780        0.84760
H         -3.47350       -3.43200       -0.21040
H         -4.65980       -3.71770        1.09720
H         -8.10740       -2.41390       -1.10250
H         -9.30200       -0.30750       -1.26410
H         -8.13710        1.82390       -0.86210
H         -5.72470        1.82080       -0.29800
