38

N         -0.69490        1.24570        0.01530
C         -1.19230        0.21150        0.76540
F         -2.31610        0.38800        1.49900
C         -0.56480       -1.04710        0.76730
C          0.58120       -1.24560        0.00060
F          1.20330       -2.45450       -0.00400
C          1.07510       -0.19570       -0.77150
C          0.41500        1.04650       -0.76170
F          0.89190        2.05440       -1.52820
Pt        -1.68490        3.05450       -0.01720
Br        -2.99170        2.15040       -1.94180
C         -0.39400        3.52440        1.65810
C          0.47980        2.73880        2.29810
N         -2.77640        4.89950        0.02580
C         -4.24010        4.67970       -0.09470
C         -2.48770        5.53970       -1.29080
C         -2.59390        5.76830        1.19150
C         -2.57920        7.18110        1.06720
C         -2.21980        8.00540        2.13350
C         -1.87080        7.45500        3.36070
C         -2.00470        6.08400        3.55790
C         -2.43560        5.25540        2.50540
H         -0.96480       -1.86840        1.35220
H          1.96000       -0.35060       -1.37860
H         -0.36480        4.49210        2.10000
H          0.67230        1.70980        2.05440
H          1.00950        3.15910        3.15870
H         -4.51940        4.01160       -0.93310
H         -4.79580        5.63570       -0.27830
H         -4.70130        4.28900        0.83330
H         -2.05570        4.82040       -2.00740
H         -1.75250        6.36520       -1.20560
H         -3.35140        6.03230       -1.81370
H         -2.81050        7.66940        0.13570
H         -2.17310        9.07470        1.98630
H         -1.51640        8.09550        4.15960
H         -1.73910        5.65950        4.52050
H         -2.51660        4.19430        2.71030
