35

N         -0.67900        1.19300        0.00100
C          0.68530        1.21130       -0.00720
C          1.42000        2.51460        0.03200
C          1.40680        0.01190       -0.01770
C          0.72190       -1.20660       -0.03490
C          1.47050       -2.50830       -0.04030
C         -0.67780       -1.20330       -0.05350
C         -1.37220        0.01750       -0.03700
C         -2.86730        0.03860       -0.10590
Pt        -1.69140        3.03290        0.00550
Br        -1.76170        3.00050       -2.58340
C         -1.63300        3.05970        2.15450
C         -1.09630        2.06790        2.87200
O         -2.67960        4.82890        0.00990
C         -3.19470        5.50560        1.03050
N         -3.79380        6.64540        0.63570
C         -3.63840        6.66480       -0.69290
C         -2.94700        5.54230       -1.07000
H          0.71470        3.37040        0.06140
H          2.06510        2.61080       -0.86580
H          2.05560        2.55220        0.94280
H          2.49010        0.03220       -0.00550
H          2.56970       -2.34770       -0.02290
H          1.21480       -3.08540       -0.95350
H          1.19130       -3.10130        0.85590
H         -1.21610       -2.14320       -0.08680
H         -3.28540       -0.98990       -0.16390
H         -3.18030        0.58390       -1.02170
H         -3.28440        0.54690        0.78560
H         -2.00670        3.85250        2.76210
H         -0.66400        1.18670        2.42690
H         -1.08470        2.13220        3.95610
H         -3.20380        5.24810        2.06240
H         -4.01180        7.44360       -1.34440
H         -2.70050        5.32650       -2.08990
