61

N         -0.67900        1.19300        0.00100
C         -1.40960        0.03380        0.10160
C         -2.90050        0.05380        0.09000
C         -0.78100       -1.21820        0.10120
C          0.60370       -1.30160       -0.01350
C          1.29750       -2.63560        0.00610
C          1.33720       -0.12330       -0.16040
C          0.68220        1.12380       -0.16680
C          1.51850        2.36110       -0.25280
Pt        -1.69140        3.03290        0.00550
Br        -1.80890        2.97450       -2.58120
C         -1.59380        3.08130        2.15270
C         -0.91710        2.20450        2.89520
P         -2.87730        5.18810        0.01070
C         -2.90620        6.31740        1.43730
C         -1.88800        7.27600        1.52140
C         -1.69740        8.02290        2.68160
C         -2.52490        7.82710        3.78340
C         -3.54730        6.87720        3.72300
C         -3.73790        6.11520        2.56490
C         -2.18960        5.96390       -1.46220
C         -3.01550        6.46200       -2.48260
C         -2.44860        7.06880       -3.60980
C         -1.06010        7.16850       -3.72950
C         -0.23380        6.66860       -2.71950
C         -0.79650        6.07410       -1.58710
C         -4.65190        4.87060        0.03120
C         -5.18310        3.58810        0.13840
C         -6.56650        3.40250        0.05890
C         -7.41410        4.49310       -0.13010
C         -6.85920        5.77700       -0.21230
O         -7.57710        6.74640       -0.38120
N         -5.50430        5.93270       -0.13980
H         -3.26810        1.08090       -0.02160
H         -3.31710       -0.42110        0.99970
H         -3.24810       -0.51790       -0.80260
H         -1.37480       -2.12330        0.16920
H          0.57480       -3.47340        0.11720
H          2.00590       -2.67850        0.86060
H          1.85940       -2.78420       -0.93910
H          2.41630       -0.17810       -0.24840
H          2.44850        2.22060        0.34510
H          0.98360        3.23470        0.17110
H          1.81130        2.54510       -1.30580
H         -2.09390        3.89420        2.66260
H         -0.35160        1.39460        2.45920
H         -0.89040        2.32720        3.97360
H         -1.18380        7.41760        0.71010
H         -0.87710        8.73560        2.74200
H         -2.35860        8.39240        4.69270
H         -4.16700        6.70330        4.59160
H         -4.48790        5.34310        2.57430
H         -4.09160        6.39520       -2.40930
H         -3.08520        7.46190       -4.39200
H         -0.62160        7.63250       -4.60420
H          0.84200        6.74130       -2.81310
H         -0.14670        5.68840       -0.81140
H         -4.53980        2.74470        0.26530
H         -6.98490        2.41070        0.13050
H         -8.48130        4.34640       -0.19640
H         -5.10130        6.90030       -0.22640
