54

N         -1.50390        0.37660        0.09330
C         -0.49380       -0.55040        0.08620
C          0.82040       -0.22940        0.48560
O          1.80980       -1.15670        0.57210
C          1.67220       -2.50460        0.30590
C          1.10610        1.08320        0.84690
C          0.10710        2.04090        0.78950
C         -1.18120        1.66980        0.40800
Pt        -3.47560       -0.20170       -0.28210
Br        -2.50210       -2.10980       -1.73790
C         -4.28380        1.38220        0.92650
C         -3.70180        2.13700        1.87100
P         -5.74440       -0.78630       -0.69760
N         -6.80240       -2.05040       -1.30120
C         -6.66560       -3.16190       -0.32530
C         -8.17370       -1.79600       -1.70890
O         -6.14260        0.63170       -1.59680
C         -6.35830        1.91930       -1.10780
C         -5.54930        2.98820       -1.57470
C         -5.67790        4.29870       -1.06630
C         -6.62830        4.58960       -0.09630
C         -7.46820        3.58150        0.35240
C         -7.35180        2.24940       -0.13560
C         -8.26870        1.25430        0.43380
C         -9.62650        1.62110        0.57820
C        -10.55080        0.73330        1.11250
C        -10.12570       -0.50730        1.57110
C         -8.77830       -0.86630        1.48380
C         -7.83500       -0.02040        0.87360
O         -6.53960       -0.44900        0.76940
H         -0.69160       -1.57540       -0.11530
H          2.63800       -3.01600        0.49160
H          1.38400       -2.65350       -0.75600
H          0.90500       -2.95340        0.97460
H          2.10100        1.36090        1.17160
H          0.31900        3.06970        1.04870
H         -1.90660        2.45560        0.32740
H         -5.32430        1.53440        0.98010
H         -2.68680        2.02740        2.20910
H         -4.30810        2.82070        2.45870
H         -5.64620       -3.20540        0.14410
H         -6.81740       -4.14200       -0.80350
H         -7.36060       -3.05520        0.52570
H         -8.22700       -0.90280       -2.35720
H         -8.86940       -1.73050       -0.85950
H         -8.49640       -2.67850       -2.30240
H         -4.78620        2.81060       -2.31500
H         -5.03230        5.09970       -1.41000
H         -6.71670        5.59490        0.31410
H         -8.19170        3.84510        1.12160
H         -9.98360        2.59100        0.24560
H        -11.59510        1.01340        1.17710
H        -10.84290       -1.19630        1.99410
H         -8.48350       -1.82690        1.86680
