44

N         -0.65900       -1.22800       -0.05100
C         -0.48230       -0.34400       -1.09050
O         -0.91240       -0.58590       -2.35270
C         -1.47070       -1.74850       -2.82300
C          0.17610        0.87040       -0.86210
C          0.68670        1.15720        0.40110
C          0.53860        0.23180        1.42980
C         -0.14250       -0.96120        1.18240
Pt        -1.57560       -3.10440       -0.27260
Br         0.70440       -4.14020       -0.93320
C         -3.46830       -2.24450        0.27590
C         -3.56330       -0.98110        0.70620
N         -2.49230       -4.98070       -0.49410
C         -1.72650       -6.12100       -0.43230
C         -2.29120       -7.40170       -0.41540
C         -3.66360       -7.56660       -0.52410
C         -4.46040       -6.45330       -0.74990
C         -5.83400       -6.60990       -1.02480
C         -6.61750       -5.51370       -1.40280
C         -6.01370       -4.26680       -1.60680
C         -6.75190       -3.03190       -2.05000
O         -6.12450       -1.99500       -2.22650
C         -8.24250       -2.93920       -2.21210
C         -4.63960       -4.16080       -1.35710
C         -3.85130       -5.17400       -0.77670
H         -1.66710       -1.63350       -3.90910
H         -2.42480       -1.95380       -2.30850
H         -0.76210       -2.58680       -2.69940
H          0.30550        1.58210       -1.66830
H          1.20950        2.08880        0.57640
H          0.95190        0.43460        2.40920
H         -0.25280       -1.68910        1.97470
H         -4.43330       -2.69990        0.32870
H         -2.72520       -0.30850        0.76560
H         -4.53100       -0.57970        0.99690
H         -0.67640       -6.10370       -0.25680
H         -1.65850       -8.27070       -0.29280
H         -4.08640       -8.56430       -0.51340
H         -6.30040       -7.58720       -0.97230
H         -7.66720       -5.67620       -1.59430
H         -8.77320       -3.88770       -2.02830
H         -8.48000       -2.58920       -3.23780
H         -8.63140       -2.18850       -1.48860
H         -4.17400       -3.24470       -1.65330
