52

P          1.05300        0.06960        0.04850
O         -0.07760        0.76230        1.14430
C          0.31970        0.29160        2.43830
C         -0.33250        1.05190        3.58450
O          0.60610        0.85150       -1.40150
C          0.72170        2.24280       -1.30440
C          0.07030        2.83160       -2.55100
O          0.55160       -1.55310        0.35090
C         -0.86510       -1.63290        0.14040
C         -1.44020       -2.92400        0.70140
Pt         3.51300        0.06960        0.04850
Br         3.51300       -1.40820       -2.07850
C          3.51300        1.29630        1.81420
C          3.07950        2.55350        1.87340
N          5.61300        0.06960        0.04850
C          5.93050       -1.37350        0.06950
C          6.22300        0.71200        1.21590
C          6.26260        0.47040       -1.19530
C          5.52480        1.00850       -2.25880
C          6.16270        1.41450       -3.44250
C          7.55220        1.31720       -3.56890
C          8.30500        0.81600       -2.51170
C          7.68470        0.40600       -1.34490
H          1.40430        0.38930        2.62240
H          0.05200       -0.77710        2.58420
H         -0.05110        2.12370        3.56150
H          0.03310        0.62110        4.54580
H         -1.43320        0.93410        3.54830
H          1.79300        2.53650       -1.28760
H          0.17600        2.65160       -0.42620
H          0.56210        2.43620       -3.46700
H          0.15060        3.93700       -2.54880
H         -1.00660        2.55250       -2.58490
H         -1.12300       -1.53110       -0.93110
H         -1.45500       -0.87900        0.70810
H         -1.03800       -3.79540        0.15200
H         -2.54950       -2.90450        0.59520
H         -1.20700       -3.01050        1.78530
H          3.84980        0.83750        2.73720
H          2.69670        3.06760        1.00360
H          3.10110        3.06610        2.83340
H          5.42660       -1.84560        0.93970
H          7.01440       -1.59170        0.18100
H          5.62210       -1.93630       -0.82210
H          5.84840        0.24500        2.15110
H          6.03730        1.80330        1.22020
H          7.31910        0.55110        1.27570
H          4.45450        1.12720       -2.18330
H          5.58330        1.81690       -4.25890
H          8.03820        1.63430       -4.47540
H          9.39180        0.75580       -2.60050
H          8.32730        0.03160       -0.56050
