64

P          1.06200       -0.07830       -0.00370
O         -0.11750        0.82610       -0.88290
C          0.25370        2.19680       -0.70570
C         -0.42580        3.17310       -1.65500
O          0.62760       -1.66540       -0.46590
C          0.67760       -1.83800       -1.85560
C         -0.00550       -3.16580       -2.17340
O          0.57990        0.54010        1.53400
C         -0.83460        0.34850        1.67820
C         -1.38440        1.13050        2.85980
Pt         3.52200       -0.07830       -0.00370
Br         3.52200       -1.89160        1.84570
C          3.52200        1.42690       -1.53890
C          3.86670        1.20150       -2.80370
P          5.98200       -0.07830       -0.00370
N          7.21370       -1.31090       -0.36210
C          6.75160       -2.59650        0.19290
C          7.15000       -1.49530       -1.84150
O          6.15050       -0.28770        1.60740
C          6.34930        0.83650        2.35870
C          5.57640        0.92600        3.51220
C          5.64530        2.04970        4.33390
C          6.51350        3.08130        4.00870
C          7.32060        3.00110        2.88000
C          7.25630        1.88290        2.00130
C          8.19580        1.93740        0.80170
C          9.50180        2.41290        1.01320
C         10.43630        2.52480       -0.01890
C         10.06070        2.19610       -1.32970
C          8.78240        1.76050       -1.58660
C          7.82540        1.60690       -0.55740
O          6.63130        1.13980       -0.90810
H          1.31710        2.36140       -0.89070
H          0.03570        2.55720        0.32470
H         -0.17880        2.93410       -2.70910
H         -0.03680        4.19480       -1.43700
H         -1.52000        3.17610       -1.49140
H          1.73500       -1.88570       -2.19190
H          0.11850       -1.05050       -2.40490
H          0.49540       -3.99550       -1.62870
H          0.03560       -3.37260       -3.26210
H         -1.07180       -3.13330       -1.85580
H         -1.09090       -0.72600        1.78050
H         -1.44320        0.77320        0.85150
H         -0.95700        0.74510        3.80400
H         -2.49280        1.02430        2.88670
H         -1.15190        2.21260        2.74300
H          3.34610        2.45300       -1.24280
H          4.13190        0.21190       -3.15070
H          3.91000        2.04320       -3.49220
H          6.79920       -2.60280        1.29920
H          7.39580       -3.43650       -0.16590
H          5.70520       -2.83390       -0.12280
H          7.42760       -0.58350       -2.39980
H          6.11920       -1.77210       -2.18240
H          7.83750       -2.29460       -2.18030
H          4.88360        0.13200        3.77500
H          5.02160        2.11740        5.21410
H          6.56190        3.96250        4.64610
H          7.96880        3.83960        2.66690
H          9.84550        2.67570        2.01140
H         11.44240        2.86390        0.17810
H         10.78200        2.28940       -2.13250
H          8.50350        1.50930       -2.60470
