30

O          1.03260        0.07310       -0.06000
C          0.46330        0.38440       -1.29690
C          0.83930       -0.64720       -2.35230
C         -1.05470        0.39900       -1.08980
Pt         3.08260        0.07310       -0.06000
Br         3.08260        2.56160       -0.77770
C          3.08260       -1.99270        0.53590
C          2.99330       -2.47080        1.77720
N          5.18260        0.07310       -0.06000
C          5.29480        0.08930        1.40260
N          5.85230        1.13090       -0.61480
C          6.95680        0.74040       -1.12600
C          7.08030       -0.63800       -1.01060
C          5.94120       -1.07930       -0.36510
H          0.76480        1.39900       -1.62010
H          0.51510       -1.66450       -2.03450
H          1.93600       -0.64700       -2.50580
H          0.34180       -0.39690       -3.31280
H         -1.41040       -0.60090       -0.75580
H         -1.58020        0.67320       -2.02630
H         -1.32600        1.13980       -0.30580
H          3.14730       -2.70370       -0.28170
H          2.92240       -1.82040        2.63960
H          3.00450       -3.54800        1.92340
H          4.75470        0.97190        1.80350
H          6.35530        0.16550        1.74580
H          4.87390       -0.80200        1.89130
H          7.66640        1.41600       -1.58540
H          7.89920       -1.25060       -1.36770
H          5.69720       -2.10730       -0.12840
