43

N         -1.43750       -0.06190       -0.12180
C         -0.81420        1.15350       -0.17400
C          0.59640        1.24400       -0.17700
O          1.24600        2.42220       -0.36250
C          0.61010        3.62510       -0.59100
C          1.34600        0.07600       -0.01550
C          0.69530       -1.15130        0.09050
C         -0.70080       -1.20210       -0.02310
Pt        -3.47560       -0.20170       -0.28210
Br        -3.18420       -1.75010       -2.33770
C         -3.71760        1.08360        1.42440
C         -2.73760        1.60320        2.17580
N         -5.50360       -0.26620       -0.44520
C         -6.30830        0.74150       -0.51840
C         -5.85690        2.15660       -0.73340
C         -4.50220        2.45660       -0.99640
C         -4.06750        3.76710       -1.17960
C         -4.98670        4.80980       -1.16350
C         -6.34350        4.53590       -0.98250
C         -6.77890        3.22080       -0.76840
N         -7.65030        0.32650       -0.72300
C         -7.65280       -1.08980       -0.98090
C         -6.24570       -1.50220       -0.55860
H         -1.41650        2.03870       -0.30180
H          1.35500        4.41650       -0.80480
H          0.02360        3.90220        0.30870
H         -0.06580        3.54010       -1.47200
H          2.43120        0.11490        0.01260
H          1.27180       -2.05610        0.24290
H         -1.20360       -2.15530        0.06160
H         -4.73220        1.33050        1.71760
H         -1.69390        1.41080        2.02040
H         -2.96880        2.25170        3.01180
H         -3.75930        1.68990       -1.06890
H         -3.01460        3.96950       -1.33690
H         -4.64650        5.82670       -1.30500
H         -7.05770        5.34740       -0.99920
H         -7.83520        3.04990       -0.62670
H         -8.44840        0.93570       -0.95690
H         -7.77030       -1.24490       -2.07610
H         -8.45660       -1.64470       -0.44600
H         -5.79450       -2.32850       -1.13870
H         -6.33320       -1.85610        0.49950
