46

N          0.98530       -0.05450        0.08250
C          0.91670        1.16770       -0.73090
C          0.39060       -1.12360       -0.73910
C          0.23240        0.15270        1.33390
C         -0.33100       -0.96140        2.01250
C         -1.12450       -0.80420        3.15470
C         -1.37420        0.46260        3.67270
C         -0.84890        1.58120        3.04060
C         -0.08130        1.44110        1.88330
Pt         3.08530       -0.05450        0.08250
Br         3.08530       -1.34600       -2.16250
C          3.08530        1.01760        1.94620
C          4.10810        1.33540        2.75330
N          5.18530       -0.05450        0.08250
C          6.07650       -1.04820       -0.12680
N          7.33450       -0.62640        0.21020
C          8.52540       -1.39270        0.52790
C          8.43410       -2.76330        0.83780
C          9.53670       -3.45830        1.34750
C         10.75420       -2.80170        1.54710
C         10.87220       -1.44830        1.23810
C          9.77140       -0.74530        0.74550
C          7.22670        0.69500        0.41990
C          5.91490        1.02860        0.39420
H         -0.13340        1.46960       -0.94710
H          1.45430        1.04250       -1.69470
H          1.46250        2.00060       -0.24170
H         -0.71960       -1.12770       -0.64700
H          0.78910       -2.11360       -0.43780
H          0.52800       -0.99100       -1.83350
H         -0.18140       -1.96880        1.65170
H         -1.55410       -1.67230        3.63810
H         -1.98320        0.58000        4.56070
H         -1.04550        2.56900        3.44080
H          0.26850        2.36570        1.45160
H          2.18070        1.35130        2.37130
H          5.13590        1.08080        2.60290
H          3.91130        1.88830        3.66730
H          5.79180       -2.07650       -0.29220
H          7.49420       -3.29480        0.74380
H          9.45110       -4.50410        1.61230
H         11.60240       -3.33670        1.95460
H         11.80990       -0.93490        1.40620
H          9.89840        0.31170        0.55860
H          8.02370        1.38030        0.69900
H          5.50730        2.01700        0.56880
