87

P          0.92800       -0.06640       -0.02010
C          0.15540        1.14490       -1.22810
C          0.75860        2.53690       -1.07820
C          0.41660        3.25090       -2.36060
C          0.84410        2.20250       -3.37440
C          0.47720        0.84690       -2.72210
C          0.03280       -1.62330       -0.69700
C          0.13140       -2.92750        0.11860
C         -0.91500       -3.82760       -0.56010
C         -2.10340       -2.90080       -0.59670
C         -1.51220       -1.53400       -0.98480
C          0.36170        0.68200        1.59350
C         -1.16630        0.81240        1.73010
C         -1.31690        1.14120        3.20700
C         -0.44210        0.07170        3.83910
C          0.72460       -0.14200        2.84380
Pt         3.38800       -0.06640       -0.02010
Br         3.38800        2.42470        0.68900
C          3.38800       -2.13420       -0.60880
C          2.95240       -2.50210       -1.81000
C          5.53800       -0.06640       -0.02010
N          6.32410        0.05690        1.11040
C          5.99030       -0.01540        2.54950
C          5.91450        1.35150        3.19950
C          4.78710       -0.91700        2.84820
C          7.60340       -0.04150        0.66950
C          7.60110       -0.23520       -0.67400
C          8.79360       -0.28820       -1.41150
C         10.01080       -0.18410       -0.71710
C         10.01980       -0.04980        0.68350
C          8.80900        0.02060        1.39650
N          6.32550       -0.33570       -1.11070
C          5.94410       -0.40990       -2.52360
C          5.85130        0.97840       -3.13460
C          6.09920        2.15490       -2.38630
C          5.98600        3.40620       -2.97790
C          5.65270        3.52180       -4.31760
C          5.41370        2.37110       -5.08000
C          5.51910        1.10780       -4.49570
H         -0.94410        1.24690       -1.11950
H          1.83990        2.42360       -1.16220
H          0.48500        3.07870       -0.14950
H          0.97660        4.21000       -2.47610
H         -0.67310        3.44030       -2.39780
H          1.96270        2.25380       -3.40250
H          0.51010        2.36840       -4.41840
H          1.36340        0.18990       -2.84980
H         -0.40240        0.37610       -3.20330
H          0.45730       -1.86700       -1.68850
H         -0.19960       -2.75620        1.16590
H          1.13080       -3.39740        0.12880
H         -1.12870       -4.78120       -0.02510
H         -0.60660       -4.07160       -1.60200
H         -2.48110       -2.84330        0.45310
H         -2.97050       -3.24960       -1.21740
H         -2.09880       -0.75710       -0.46310
H         -1.65330       -1.37470       -2.07610
H          0.77450        1.70350        1.73010
H         -1.66070       -0.16820        1.55970
H         -1.63090        1.57770        1.07410
H         -2.36670        1.12780        3.58230
H         -0.88460        2.14660        3.40120
H         -1.05780       -0.85930        3.83250
H         -0.15360        0.26390        4.89450
H          0.76270       -1.23100        2.63160
H          1.70320        0.19000        3.24070
H          3.75340       -2.88210        0.08680
H          2.58920       -1.75410       -2.50260
H          2.94330       -3.54710       -2.09870
H          6.82530       -0.55360        3.05340
H          5.02500        1.89640        2.84830
H          6.83350        1.92440        2.95510
H          5.85630        1.23030        4.30230
H          3.84840       -0.47460        2.47000
H          4.70290       -1.06930        3.94870
H          4.93380       -1.92120        2.39040
H          8.80420       -0.39910       -2.48500
H         10.94700       -0.21780       -1.26260
H         10.96340        0.01120        1.21060
H          8.83870        0.14330        2.46870
H          5.00180       -0.97620       -2.63520
H          6.71650       -0.97730       -3.08200
H          6.37760        2.11560       -1.34290
H          6.19820        4.28970       -2.37990
H          5.57290        4.50330       -4.76650
H          5.14750        2.47040       -6.12330
H          5.32740        0.22670       -5.09810
