73

P         -0.09400       -2.58900       -0.00200
N          0.28090       -0.92150       -0.48650
C          1.45640       -0.94960       -1.38130
C         -0.76430       -0.00860       -0.92910
O         -1.30800       -2.36760        1.07470
C         -2.28700       -3.29010        1.02340
C         -2.60380       -3.94090        2.22060
C         -3.58910       -4.92590        2.25330
C         -4.28890       -5.25530        1.09560
C         -4.00620       -4.60130       -0.10330
C         -2.99600       -3.62400       -0.18010
C         -2.77250       -2.99920       -1.54550
C         -3.90880       -2.58510       -2.26410
C         -3.77660       -2.01140       -3.53490
C         -2.51730       -1.87530       -4.11770
C         -1.38700       -2.31290       -3.43680
C         -1.48860       -2.84670       -2.14400
O         -0.34680       -3.20060       -1.52340
Pt         1.42500       -4.05750        1.25810
Br         1.50570       -2.32410        3.18080
C          1.35800       -5.49640       -0.33800
C          0.22450       -6.02800       -0.79760
P          2.94400       -5.52600        2.51820
C          4.49760       -5.89040        1.66210
C          5.27870       -4.72650        1.47770
C          6.47730       -4.75230        0.77470
C          6.92480       -5.95270        0.23440
C          6.17280       -7.12230        0.41000
C          4.95780       -7.10210        1.12110
C          3.77940       -5.07010        4.21260
C          3.67520       -3.77570        4.64740
C          3.95370       -3.25960        5.89510
C          4.56450       -4.06710        6.81530
C          4.91330       -5.36520        6.42200
C          4.51490       -5.88220        5.14020
C          2.13120       -7.16360        2.51700
C          2.75110       -8.21020        3.21780
C          2.07160       -9.40170        3.46810
C          0.77010       -9.57000        3.00580
C          0.16120       -8.52460        2.30710
O         -0.99660       -8.64030        1.93940
N          0.83260       -7.33480        2.10430
H          2.26200       -1.59370       -0.95420
H          1.89310        0.06060       -1.50630
H          1.19760       -1.35490       -2.38290
H         -1.58830        0.01460       -0.19220
H         -1.11960       -0.23850       -1.94480
H         -0.32610        1.01520       -0.96670
H         -2.06690       -3.69330        3.13140
H         -3.81420       -5.43900        3.17910
H         -5.05120       -6.02520        1.12500
H         -4.57010       -4.89530       -0.98360
H         -4.90140       -2.67590       -1.84880
H         -4.65160       -1.66020       -4.06470
H         -2.41870       -1.42640       -5.09840
H         -0.41430       -2.19630       -3.90000
H          2.30120       -5.79630       -0.78280
H         -0.73040       -5.74940       -0.36730
H          0.25620       -6.75470       -1.60340
H          4.94770       -3.76920        1.86930
H          7.04650       -3.83710        0.64120
H          7.85080       -5.96560       -0.32730
H          6.53320       -8.04370       -0.02370
H          4.39820       -8.01710        1.21410
H          3.44380       -3.12530        3.96000
H          3.70940       -2.22110        6.10780
H          4.80660       -3.64530        7.78810
H          5.47660       -5.95500        7.13160
H          4.80230       -6.89230        4.93310
H          3.73720       -8.10810        3.62620
H          2.54660      -10.18730        4.04350
H          0.23670      -10.48350        3.21540
H          0.32700       -6.52650        1.68250
