70

P          0.91830        0.05680        0.00990
C         -0.18960        1.64160        0.06200
C         -1.75830        1.77220       -0.20300
C         -2.68320        1.77750        1.05900
C         -2.18870        2.72810        2.13550
C         -0.72850        2.41840        2.49430
C          0.15720        2.57950        1.22850
C          0.55410       -0.51720       -1.81390
C          0.91120        0.40580       -3.02680
C          2.37340        0.29620       -3.50090
C          2.69400       -1.12980       -3.96390
C          2.44090       -2.05360       -2.80810
C          0.99720       -1.95060       -2.26580
C          0.17780       -0.94210        1.45170
C         -1.32670       -1.24140        1.19550
C         -1.64600       -2.49500        0.38050
C         -1.10180       -3.71860        1.08780
C          0.41020       -3.56750        1.29280
C          0.76330       -2.25960        2.04270
Pt         3.37830        0.05680        0.00990
Br         3.37830       -2.53280        0.05440
C          3.37830        2.20650       -0.02710
C          2.93900        2.99520       -1.00580
N          5.47830        0.05680        0.00990
C          6.18880        1.24440        0.00370
C          7.57320        1.30010       -0.02070
F          8.21010        2.50340       -0.03200
C          8.29580        0.13980       -0.04960
C          7.62800       -1.07850       -0.04790
C          6.22700       -1.09610       -0.00960
H          0.24640        2.14100       -0.81590
H         -2.09930        1.09210       -0.99690
H         -1.88680        2.79980       -0.61330
H         -2.84120        0.81990        1.56670
H         -3.71670        2.08370        0.75040
H         -2.81710        2.62020        3.05280
H         -2.26100        3.77740        1.79020
H         -0.66320        1.42020        2.93890
H         -0.38800        3.13950        3.26760
H          1.23280        2.49630        1.49940
H          0.00120        3.63240        0.89380
H         -0.55190       -0.54540       -1.79410
H          0.61990        1.45260       -2.84180
H          0.29850        0.06690       -3.89240
H          3.05490        0.58290       -2.67100
H          2.55440        0.97700       -4.36140
H          3.77560       -1.20970       -4.24060
H          2.09210       -1.45070       -4.83870
H          3.17820       -1.65370       -2.13000
H          2.69070       -3.10530       -3.06250
H          0.81130       -2.68480       -1.48160
H          0.34720       -2.27340       -3.10970
H          0.31840       -0.23570        2.27660
H         -1.75040       -0.49030        0.57390
H         -1.85750       -1.32290        2.17110
H         -1.22860       -2.41780       -0.63840
H         -2.75090       -2.58640        0.27120
H         -1.32800       -4.62400        0.48400
H         -1.61240       -3.82060        2.07120
H          0.90520       -3.60850        0.32410
H          0.77510       -4.44380        1.86700
H          1.84380       -2.16260        2.24830
H          0.28450       -2.38580        3.04200
H          3.76630        2.68580        0.86720
H          2.51820        2.61210       -1.91870
H          2.99120        4.07260       -0.86860
H          5.71340        2.20860        0.00460
H          9.38280        0.16350       -0.07540
H          8.19030       -2.00130       -0.06760
H          5.80990       -2.07480       -0.01600
