28

P          1.07700       -0.04940        0.04040
F         -0.58420        0.06620        0.21030
F          1.06200        1.23830       -1.02930
F          0.90740       -1.64200       -0.44270
Ag         3.53700       -0.04940        0.04040
Br         3.31670       -1.64370       -1.89120
C          3.51850        1.27500        1.62340
C          4.02930        0.83450        2.77790
C          5.68700       -0.04940        0.04040
N          6.42180       -1.03010       -0.39140
C          5.96200       -2.37590       -0.63850
C          7.81630       -0.76900       -0.16340
C          7.84200        0.71640        0.11640
N          6.50360        0.99560        0.57180
C          6.07120        2.37360        0.68600
H          3.11870        2.27700        1.53890
H          4.42620       -0.17480        2.83490
H          4.06530        1.46420        3.65930
H          4.97820       -2.55880       -0.17030
H          6.60130       -3.08970       -0.06600
H          6.03660       -2.63900       -1.71150
H          8.47040       -1.04890       -1.01990
H          8.12230       -1.33100        0.75140
H          7.96020        1.22290       -0.87050
H          8.65220        1.04580        0.80070
H          6.83310        3.06080        0.25640
H          5.93460        2.64260        1.75240
H          5.14190        2.54720        0.10540
