30

P          0.94550        0.06800        0.04920
F         -0.71030        0.29690       -0.04030
F          0.92390       -0.76710       -1.40160
F          0.78230       -0.70540        1.52420
Ag         3.40550        0.06800        0.04920
Br         3.31110       -2.13200        1.21810
C          3.41440        1.79400       -1.08370
C          3.43130        1.65100       -2.41070
N          5.50550        0.06800        0.04920
C          6.35630        1.04170       -0.33780
N          7.64200        0.71570       -0.06060
C          8.82870        1.54600       -0.16900
C          8.72860        2.91020       -0.50650
C          9.86650        3.72390       -0.52230
C         11.11690        3.19100       -0.21040
C         11.23490        1.84160        0.11550
C         10.10540        1.02230        0.13990
C          7.59380       -0.53090        0.45100
C          6.28300       -0.92080        0.53210
H          3.43320        2.77730       -0.63210
H          3.42470        0.65200       -2.84080
H          3.45640        2.50910       -3.07260
H          6.03600        1.99600       -0.73080
H          7.77760        3.36440       -0.73060
H          9.77570        4.77470       -0.76590
H         11.99410        3.82470       -0.21270
H         12.20350        1.42920        0.36390
H         10.24700       -0.01180        0.41530
H          8.42910       -1.12650        0.79830
H          5.94590       -1.86080        0.93330
