63

P          1.03060       -0.02910        0.09060
C          0.33030       -1.63720       -0.39220
C         -1.03550       -1.96420       -0.41420
C         -1.42590       -3.27240       -0.76510
C         -0.46800       -4.24010       -1.09650
F         -0.84680       -5.50400       -1.41910
C          0.88280       -3.90560       -1.09750
C          1.27270       -2.61360       -0.75380
C          0.54680       -0.11530        1.85500
C         -0.09870       -1.20130        2.49460
C         -0.59530       -1.06390        3.79780
C         -0.45680        0.14410        4.48260
F         -0.97460        0.28500        5.72850
C          0.20080        1.21280        3.87640
C          0.70260        1.08110        2.57910
C          0.31520        1.20080       -1.03100
C         -0.49320        2.21410       -0.47590
C         -1.06100        3.20450       -1.27980
C         -0.82550        3.19730       -2.65730
F         -1.37190        4.16360       -3.43680
C         -0.03250        2.19210       -3.22320
C          0.53710        1.19350       -2.41590
Ag         3.49060       -0.02910        0.09060
Br         3.49060       -2.00890        1.76060
C          3.49060        1.61430       -1.29560
C          4.13890        1.53980       -2.46270
C          5.64060       -0.02910        0.09060
N          6.49210       -1.01510        0.57050
C          6.32420       -2.33090        1.20930
C          7.75550       -0.62070        0.32600
C          7.73700        0.58000       -0.27510
N          6.46610        0.99150       -0.40840
C          6.26030        2.33470       -0.93660
C          6.94180        2.72420       -2.11180
C          6.60320        3.90700       -2.76940
C          5.59220        4.72550       -2.27010
C          4.97760        4.40500       -1.05570
C          5.33410        3.23420       -0.37000
H         -1.78160       -1.23400       -0.14990
H         -2.47330       -3.54050       -0.77510
H          1.62960       -4.64870       -1.35400
H          2.33210       -2.38160       -0.76320
H         -0.26740       -2.14790        2.01100
H         -1.11480       -1.88890        4.26870
H          0.29780        2.15570        4.40010
H          1.17000        1.94260        2.11830
H         -0.69120        2.25100        0.58580
H         -1.67070        3.98230       -0.83790
H          0.14250        2.19370       -4.29120
H          1.15150        0.42880       -2.86700
H          2.74750        2.39920       -1.20430
H          4.78900        0.70280       -2.68770
H          4.00550        2.32480       -3.20200
H          5.66030       -2.97050        0.59500
H          6.04040       -2.20930        2.26920
H          7.28990       -2.88470        1.24220
H          8.65060       -1.18090        0.57400
H          8.62120        1.14250       -0.55490
H          7.67890        2.07450       -2.56430
H          7.08760        4.15980       -3.70870
H          5.28110        5.60250       -2.82460
H          4.18280        5.03670       -0.67820
H          4.80360        2.97650        0.54250
