60

P          1.06320        0.02800       -0.07230
C          0.25230       -0.68920       -1.53180
C         -1.13060       -0.88040       -1.67430
C         -1.62680       -1.60340       -2.77150
C         -0.75060       -2.15260       -3.71710
Cl        -1.36730       -3.13110       -5.03790
C          0.62320       -1.94890       -3.59080
C          1.11930       -1.21750       -2.51040
C          0.58430       -1.23600        1.14390
C          0.40140       -2.59150        0.79900
C          0.01200       -3.52360        1.76950
C         -0.18810       -3.12040        3.09290
Cl        -0.69320       -4.28500        4.30480
C          0.01130       -1.78550        3.44980
C          0.39020       -0.84950        2.48320
C          0.31330        1.70140       -0.03780
C         -0.63320        2.18730       -0.96350
C         -1.32450        3.38300       -0.71440
C         -1.07580        4.12060        0.44540
Cl        -1.99110        5.58330        0.77680
C         -0.11460        3.67650        1.35200
C          0.57210        2.47940        1.11340
Ag         3.52320        0.02800       -0.07230
Br         3.46520        1.67920       -1.91670
C          3.64300       -1.40080        1.50370
C          4.70580       -2.08000        1.94930
N          5.62320        0.02800       -0.07230
C          6.35970        1.16010        0.26340
N          5.75280        2.39690        0.73250
C          4.40900        2.49690        1.27710
C          6.45850        3.67460        0.64270
C          7.77130        1.07170        0.22260
C          8.39600       -0.05190       -0.29110
C          7.63030       -1.10620       -0.76040
C          6.24270       -1.06340       -0.61340
H         -1.81550       -0.50080       -0.93080
H         -2.69060       -1.76670       -2.87230
H          1.30990       -2.38150       -4.31110
H          2.19390       -1.11000       -2.41470
H          0.55350       -2.93850       -0.21310
H         -0.13730       -4.55990        1.49300
H         -0.13110       -1.47050        4.47600
H          0.53880        0.17440        2.78920
H         -0.89790        1.64360       -1.85100
H         -2.08180        3.72130       -1.40960
H          0.07440        4.24160        2.25870
H          1.27540        2.14280        1.86420
H          2.76260       -1.62340        2.05490
H          5.67960       -2.05080        1.50820
H          4.57950       -2.75430        2.79210
H          3.91560        1.52370        1.40460
H          3.79510        3.15330        0.62190
H          4.44450        2.98250        2.27930
H          7.43000        3.62040        0.12150
H          6.61800        4.10900        1.65390
H          5.85460        4.38430        0.04080
H          8.41420        1.85990        0.58580
H          9.47720       -0.08490       -0.34690
H          8.11410       -1.95080       -1.23160
H          5.64680       -1.87830       -1.00080
