53

P          0.95210        0.02980       -0.08260
C          0.16180       -1.62430       -0.44530
C         -1.36810       -1.75590       -0.52710
C          0.75130       -2.13820       -1.77170
C          0.57810        0.48200        1.67690
C          1.14830        1.87580        1.95190
C         -0.93260        0.54340        1.96930
C          0.21440        1.01820       -1.43050
Ag         3.41210        0.02980       -0.08260
Br         3.41210       -1.72590        1.82150
C          3.41210        1.48720       -1.66320
C          2.94800        2.73170       -1.59140
N          5.51210        0.02980       -0.08260
C          6.26170       -0.96310        0.24230
C          5.78670       -2.36950        0.20330
C          4.77560       -2.70200       -0.72930
C          4.33150       -4.01750       -0.87330
C          4.90070       -5.02060       -0.08520
C          5.91790       -4.71950        0.82370
C          6.37390       -3.38960        0.95770
N          7.62780       -0.65980        0.18410
C          7.77160        0.66130       -0.36840
C          6.31990        1.15520       -0.49570
H          0.52380       -2.31640        0.34580
H         -1.80150       -1.11800       -1.31960
H         -1.88810       -1.57650        0.41680
H         -1.61610       -2.81280       -0.77440
H          0.39910       -1.53540       -2.63370
H          0.45020       -3.19110       -1.95640
H          1.86100       -2.10500       -1.74750
H          1.04040       -0.23790        2.37840
H          0.67510        2.63240        1.28700
H          2.24530        1.88760        1.79570
H          0.94350        2.17070        3.00510
H         -1.46640        1.17190        1.22170
H         -1.12470        0.97030        2.97650
H         -1.36820       -0.46090        2.02180
H         -0.89110        0.95380       -1.34460
H          0.52680        0.68390       -2.43500
H          0.45160        2.08720       -1.29090
H          3.84430        1.15260       -2.60080
H          2.50170        3.12360       -0.68790
H          3.00810        3.36120       -2.47720
H          4.33490       -1.94260       -1.36620
H          3.56880       -4.25910       -1.59800
H          4.55850       -6.04430       -0.20020
H          6.35540       -5.50080        1.42170
H          7.16580       -3.16990        1.65320
H          8.39450       -1.33440        0.30280
H          8.23270        0.56400       -1.37310
H          8.39220        1.30690        0.28610
H          6.09430        1.50910       -1.52010
H          6.13740        1.97210        0.23990
