47

P          1.01150       -0.08080        0.05780
C          0.21730        0.16330        1.72910
C         -1.31110        0.12280        1.87280
C          0.81710       -0.88820        2.68220
C          0.62060        1.39410       -1.00180
C          1.19240        1.16240       -2.40430
C         -0.89300        1.62300       -1.16720
C          0.27600       -1.68730       -0.41060
Ag         3.47150       -0.08080        0.05780
Br         3.47150        2.32380        1.02020
C          3.47150       -2.07680       -0.74110
C          3.01590       -3.14300       -0.08510
C          5.62150       -0.08080        0.05780
N          6.45010        1.02270        0.12620
C          6.20480        2.45210       -0.03240
C          7.71720        0.57300        0.14480
C          7.70550       -0.78120        0.10440
N          6.43340       -1.20410        0.02240
C          6.14250       -2.63920        0.03070
H          0.57210        1.15010        2.09890
H         -1.73640       -0.83710        1.52570
H         -1.82570        0.95700        1.39000
H         -1.56730        0.23930        2.94970
H          0.47620       -1.91260        2.43020
H          0.51450       -0.68720        3.73160
H          1.92820       -0.86540        2.64320
H          1.07230        2.31430       -0.58250
H          0.72940        0.26610       -2.87470
H          2.29130        1.02930       -2.36540
H          0.97140        2.03900       -3.05420
H         -1.41340        0.69130       -1.48530
H         -1.09780        2.40390       -1.92970
H         -1.33870        2.02850       -0.25220
H         -0.82680       -1.56300       -0.45560
H          0.48930       -2.49910        0.30130
H          0.60980       -1.96960       -1.42830
H          3.85740       -2.19750       -1.74810
H          2.61620       -3.05120        0.91640
H          3.03560       -4.11560       -0.56930
H          5.37800        2.62860       -0.75110
H          7.06800        2.92810       -0.55290
H          6.12470        2.95390        0.95310
H          8.60230        1.19570        0.16760
H          8.57250       -1.41370        0.12400
H          7.07630       -3.22360        0.18220
H          5.74850       -2.97990       -0.94790
H          5.48750       -2.88880        0.89210
