93

P          1.08580        0.01620        0.04880
C          0.08220        1.45130        1.01090
C         -1.36950        1.82660        1.10800
C         -2.60030        1.26920        0.38180
C         -1.80590        2.92840        1.90690
C         -0.93020        3.77630        2.56620
C         -1.35580        4.97770        3.39250
C          0.40350        3.55640        2.39070
C          0.90900        2.48500        1.63490
C          2.38560        2.66120        1.47110
C          0.40270        0.21350       -1.73880
C         -0.04900        1.50100       -2.23370
C          0.18490        2.82050       -1.55360
C         -0.63900        1.65250       -3.49820
C         -0.77440        0.59660       -4.37530
C         -1.39450        0.81380       -5.73930
C         -0.28010       -0.64130       -3.99830
C          0.30630       -0.86480       -2.72150
C          0.85620       -2.25970       -2.54060
C          0.87710       -1.52520        1.24880
C         -0.32680       -1.90870        1.97960
C         -1.62060       -1.23880        1.90050
C         -0.38760       -3.05380        2.79680
C          0.66710       -3.93260        2.87710
C          0.60930       -5.17080        3.73080
C          1.78030       -3.69250        2.11440
C          1.89460       -2.53860        1.28880
C          3.11620       -2.54260        0.45860
Ag         3.54580        0.01620        0.04880
Br         3.54580        0.21160        2.63140
C          3.54580       -0.14600       -2.09510
C          2.98320        0.71850       -2.93070
P          6.00580        0.01620        0.04880
C          7.11590       -0.13360        1.57750
C          6.92520        0.97620        2.63740
C          6.82000       -1.47610        2.28720
C          6.67110       -1.19050       -1.21680
C          8.20560       -1.24330       -1.17560
C          6.16060       -2.63540       -1.00810
C          6.30830        1.78030       -0.27850
H         -2.40360        0.49490       -0.38360
H         -3.12010        2.09400       -0.15250
H         -3.32960        0.89490        1.14320
H         -2.86130        3.17930        1.99650
H         -2.45810        5.08280        3.47150
H         -0.95470        5.91360        2.93610
H         -0.92990        4.90020        4.41750
H          1.08530        4.28710        2.83130
H          2.60380        3.66820        1.05760
H          2.83200        1.96280        0.75590
H          2.85230        2.66120        2.47810
H          1.00910        2.76400       -0.84050
H         -0.75540        3.26270       -1.17690
H          0.62290        3.52560       -2.29580
H         -0.96530        2.63700       -3.82280
H         -1.72790        1.86560       -5.88120
H         -2.28160        0.15960       -5.86640
H         -0.65780        0.58490       -6.53830
H         -0.35050       -1.43990       -4.73190
H          0.68120       -2.89620       -3.44430
H          0.41010       -2.78280       -1.67880
H          1.95270       -2.21270       -2.49010
H         -1.47190       -0.59180        1.09630
H         -1.92700       -0.77640        2.86280
H         -2.40800       -1.94810        1.55470
H         -1.29540       -3.29210        3.34370
H         -0.35180       -5.25220        4.28140
H          1.43670       -5.15060        4.47130
H          0.72280       -6.07490        3.09460
H          2.57220       -4.42420        2.13170
H          3.63740       -3.51500        0.46680
H          3.85420       -1.83030        0.82200
H          2.82830       -2.37860       -0.59280
H          4.18360       -0.89170       -2.54650
H          2.46090        1.58210       -2.56030
H          3.10790        0.59260       -4.00240
H          8.19040       -0.08380        1.31510
H          5.89950        1.07570        3.02240
H          7.24360        1.96750        2.27060
H          7.54460        0.75730        3.53510
H          5.72910       -1.61440        2.46630
H          7.32040       -1.54740        3.27740
H          7.19770       -2.33620        1.72150
H          6.35530       -0.87080       -2.22410
H          8.56960       -1.63930       -0.20340
H          8.63960       -0.23930       -1.34870
H          8.58940       -1.94100       -1.95040
H          6.43400       -3.08590       -0.04030
H          6.57790       -3.31560       -1.78010
H          5.07300       -2.67970       -1.12110
H          5.85290        2.40510        0.51610
H          5.87850        2.06780       -1.25610
H          7.40690        1.95590       -0.30180
