64

P          1.07600       -0.03870       -0.05230
C          0.13300        1.30750        0.81450
C          0.45950        2.70770        0.62840
C          1.52650        3.27030       -0.28770
C         -0.20760        3.69380        1.37500
C         -1.19880        3.35120        2.27970
C         -1.54040        2.01520        2.46220
C         -0.87470        1.00550        1.74900
C          0.62350        0.50230       -1.76510
C         -0.74030        0.65280       -2.20830
C         -1.96410        0.38600       -1.36350
C         -1.01310        1.07610       -3.51400
C          0.01550        1.33260       -4.40580
C          1.33920        1.17860       -4.00190
C          1.63650        0.77540       -2.69690
C          0.54030       -1.79870        0.22570
C          0.66370       -2.51450        1.46430
C          1.32950       -1.98600        2.69940
C          0.14140       -3.82310        1.57750
C         -0.46880       -4.45000        0.49840
C         -0.56030       -3.78710       -0.71710
C         -0.06920       -2.48240       -0.85070
Ag         3.53600       -0.03870       -0.05230
Br         3.37050       -2.10660       -1.45570
C          3.44220        1.64840        1.21920
C          4.34480        2.63660        1.28540
N          5.63600       -0.03870       -0.05230
C          6.29780       -0.85330       -0.94680
C          7.70120       -0.98360       -0.96280
C          8.40110       -1.88960       -1.93370
C          8.45830       -0.27380       -0.04170
C          7.81590        0.51900        0.88660
C          6.42350        0.61250        0.87510
H          2.10250        2.50750       -0.83090
H          2.24530        3.86910        0.31460
H          1.08360        3.97110       -1.02290
H          0.05670        4.74280        1.26370
H         -1.69530        4.13320        2.84550
H         -2.31580        1.76860        3.16930
H         -1.14880       -0.02330        1.93480
H         -1.74860       -0.03590       -0.37600
H         -2.61820       -0.35350       -1.87170
H         -2.53820        1.33240       -1.23870
H         -2.04020        1.20030       -3.84770
H         -0.22160        1.65390       -5.41440
H          2.12850        1.37830       -4.70900
H          2.67800        0.66280       -2.41550
H          1.76010       -0.97950        2.56020
H          2.15180       -2.68600        2.97560
H          0.60400       -1.97200        3.54230
H          0.20790       -4.37000        2.51310
H         -0.86420       -5.45550        0.60520
H         -1.02400       -4.28800       -1.55840
H         -0.17780       -2.01550       -1.81560
H          2.54310        1.81610        1.78780
H          5.19280        2.67530        0.61260
H          4.19620        3.49620        1.92580
H          5.77220       -1.41170       -1.68670
H          7.68580       -2.40710       -2.60610
H          8.96690       -2.66180       -1.36820
H          9.11430       -1.30380       -2.55040
H          9.53840       -0.36070       -0.02160
H          8.39270        1.03490        1.64450
H          6.03760        1.13630        1.71580
