80

P          0.95470       -0.07720        0.04470
C         -0.13520        0.22500        1.46890
C         -1.52800        0.37160        1.39840
C         -2.28830        0.40420        2.58110
C         -1.66790        0.27610        3.84390
O         -2.36430        0.23510        5.01180
C         -3.73670        0.29710        5.13890
C         -0.27860        0.15250        3.90420
C          0.47940        0.13150        2.73150
C          0.57710        1.50650       -0.79430
C          0.23400        2.70480       -0.14730
C         -0.13630        3.82930       -0.90360
C         -0.16400        3.78060       -2.31190
O         -0.52950        4.83680       -3.08560
C         -0.93500        6.06760       -2.61780
C          0.19030        2.59570       -2.95230
C          0.56420        1.48430       -2.20380
C          0.14610       -1.65280       -0.43430
C          0.07100       -2.02460       -1.78650
C         -0.62510       -3.16550       -2.18150
C         -1.26010       -3.97940       -1.22820
O         -2.01200       -5.05510       -1.57490
C         -2.39360       -5.36990       -2.86360
C         -1.13610       -3.65760        0.12570
C         -0.44340       -2.51080        0.52190
Ag         3.41470       -0.07720        0.04470
Br         3.34270        2.19250        1.08560
C          3.22080       -2.01260       -0.73420
C          4.14490       -2.51720       -1.53330
C          5.56470       -0.07720        0.04470
N          6.41250       -1.15740        0.22970
C          6.15380       -2.58300        0.56090
C          6.79320       -3.52450       -0.49930
C          6.70700       -2.97860        1.93300
C          7.66450       -0.66920        0.15120
C          7.60710        0.66560       -0.13330
N          6.32040        1.03610       -0.22130
C          5.89210        2.30810       -0.83540
C          6.35740        3.53950       -0.05190
C          6.43490        2.38570       -2.27820
H         -2.02390        0.41570        0.44040
H         -3.36270        0.49020        2.50390
H         -4.01280        0.18860        6.20950
H         -4.21600       -0.53110        4.57300
H         -4.10820        1.27580        4.77270
H          0.21650        0.03700        4.86330
H          1.55090       -0.01910        2.81360
H          0.21460        2.76880        0.92660
H         -0.40600        4.73320       -0.37890
H         -1.15730        6.73070       -3.47890
H         -0.12480        6.52750       -2.01470
H         -1.85570        5.95800       -2.00610
H          0.16510        2.53160       -4.03530
H          0.81810        0.59880       -2.75770
H          0.53120       -1.43980       -2.55660
H         -0.67780       -3.39240       -3.23720
H         -3.06460       -6.25180       -2.84220
H         -1.50590       -5.60470       -3.48690
H         -2.95400       -4.51770       -3.30910
H         -1.60500       -4.28240        0.87620
H         -0.39520       -2.29930        1.58040
H          2.33360       -2.60600       -0.66730
H          4.99250       -1.90180       -1.78950
H          4.01630       -3.48910       -1.99950
H          5.08030       -2.75380        0.66350
H          7.89850       -3.54680       -0.40550
H          6.60640       -3.22230       -1.54440
H          6.40200       -4.55810       -0.37330
H          7.81560       -2.91930        1.95750
H          6.41610       -4.03470        2.14910
H          6.28260       -2.33330        2.72580
H          8.57220       -1.24750        0.26080
H          8.46390        1.30400       -0.33070
H          4.80140        2.30380       -0.97760
H          7.46880        3.57580       -0.01360
H          5.95930        3.52890        0.98140
H          6.00470        4.46070       -0.56760
H          7.53780        2.51830       -2.29670
H          5.97470        3.23750       -2.82260
H          6.18990        1.45380       -2.83440
