105

P          1.08150        0.03950        0.04240
C          0.28470        0.84630       -1.36810
C         -1.09620        0.90750       -1.61130
C         -1.56190        1.45050       -2.82510
C         -0.65550        1.93820       -3.78890
C         -1.10890        2.43630       -5.13040
C          0.70960        1.93500       -3.50250
C          1.16930        1.40640       -2.30520
C          0.70900       -1.67490       -0.50840
C         -0.00230       -2.02940       -1.68660
C         -0.35510       -3.35810       -1.92800
C         -0.02550       -4.35790       -1.01570
C         -0.45450       -5.78140       -1.24970
C          0.71010       -4.02910        0.12600
C          1.07560       -2.70930        0.37620
C          0.40530        0.87460        1.49340
C         -0.40750        0.14730        2.37630
C         -0.91600        0.74690        3.53330
C         -0.60890        2.08190        3.83030
C         -1.10420        2.72050        5.09880
C          0.18060        2.81990        2.93320
C          0.67420        2.22180        1.76420
Ag         3.54150        0.03950        0.04240
Br         3.54150       -0.97630       -2.34010
C          3.54150        0.88270        2.02020
C          3.80370        2.19550        2.03570
P          6.00150        0.03950        0.04240
C          6.60830        0.06290       -1.79770
C          5.94090        1.23660       -2.58060
C          6.76340        2.53260       -2.58170
C          8.15860        2.29470       -3.18820
C          8.92320        1.11790       -2.55300
C          8.03920       -0.10670       -2.44240
C          6.71910        1.64930        0.93710
C          6.63430        1.82180        2.48970
C          7.67460        1.04630        3.28020
C          9.07830        1.44190        2.90540
C          9.25990        1.28090        1.39190
C          8.18920        2.13180        0.68470
C          6.55450       -1.67400        0.90650
C          7.37840       -2.72470        0.29500
C          7.77420       -2.93270       -1.12870
C          7.93840       -3.78930        1.04870
C          7.69730       -3.96520        2.38760
C          8.34200       -5.07940        3.16990
C          6.82930       -3.10310        2.99780
C          6.26580       -2.00170        2.32300
C          5.41390       -1.27270        3.29670
H         -1.79470        0.49690       -0.89660
H         -2.62390        1.45990       -3.02890
H         -2.20990        2.36910       -5.24190
H         -0.64380        1.80540       -5.92160
H         -0.78720        3.48720       -5.28650
H          1.42790        2.31640       -4.22550
H          2.23460        1.40280       -2.12790
H         -0.33130       -1.32080       -2.41890
H         -0.94810       -3.59110       -2.81220
H         -1.04300       -5.87770       -2.18650
H         -1.08580       -6.12410       -0.40100
H          0.43620       -6.43910       -1.33110
H          0.98000       -4.79770        0.84890
H          1.60520       -2.46740        1.29110
H         -0.64210       -0.89040        2.17590
H         -1.53310        0.16210        4.20550
H         -1.73720        2.02360        5.68990
H         -1.70050        3.62800        4.86950
H         -0.23480        3.00870        5.72760
H          0.42110        3.85450        3.14650
H          1.28630        2.80450        1.08820
H          2.76600        0.78040        2.77230
H          4.21340        2.70950        1.18830
H          3.52280        2.79870        2.90080
H          6.06840       -0.80840       -2.16100
H          4.91370        1.44170       -2.21730
H          5.84160        0.93190       -3.64900
H          6.81560        2.94960       -1.57200
H          6.23960        3.29670       -3.19770
H          8.77030        3.22040       -3.13240
H          8.00980        2.04990       -4.26250
H          9.38470        1.27410       -1.58330
H          9.80860        0.89190       -3.18370
H          8.67180       -0.87800       -2.01840
H          7.84870       -0.40030       -3.50510
H          6.13040        2.44990        0.45710
H          5.73330        1.55130        2.97650
H          6.75520        2.90970        2.71510
H          7.58490       -0.01750        3.06560
H          7.50050        1.23370        4.36210
H          9.78950        0.80840        3.47520
H          9.24190        2.50340        3.19940
H          9.17410        0.21910        1.08100
H         10.28480        1.64180        1.15020
H          8.38160        2.33620       -0.34250
H          8.31630        3.16990        1.07880
H          7.17680       -2.41660       -1.85060
H          7.54080       -3.97740       -1.42300
H          8.87680       -2.81910       -1.23870
H          8.58980       -4.51770        0.57810
H          9.01190       -5.69490        2.53440
H          7.56450       -5.73920        3.60930
H          8.95340       -4.64750        3.98990
H          6.62160       -3.28460        4.05030
H          5.96040       -1.00600        4.22980
H          4.52670       -1.87870        3.58230
H          5.13970       -0.38870        2.85250
