102

P          0.96560       -0.06490        0.06780
C          0.22870        0.45420       -1.67530
C         -1.16520        0.39800       -2.12980
C         -2.32580       -0.19970       -1.38210
C         -1.56290        0.91990       -3.38390
C         -0.65960        1.42870       -4.29910
C         -1.08980        1.97470       -5.64240
C          0.67240        1.37000       -3.98930
C          1.13870        0.87320       -2.75100
C          2.63510        0.78260       -2.77950
C          0.32680       -1.83590        0.19220
C          0.61810       -2.83900       -0.80850
C          1.46150       -2.63840       -2.01120
C          0.10980       -4.16700       -0.67730
C         -0.66950       -4.53560        0.41050
C         -1.17220       -5.95660        0.55590
C         -0.95720       -3.60950        1.38670
C         -0.49930       -2.27400        1.28570
C         -0.91070       -1.42380        2.47410
C          0.44410        1.13190        1.51590
C         -0.84200        1.80970        1.65470
C         -1.85320        1.99670        0.60620
C         -1.31690        2.31030        2.88270
C         -0.58800        2.19300        4.04690
C         -1.17310        2.65860        5.36080
C          0.66500        1.60280        3.97610
C          1.17720        1.07430        2.76120
C          2.48460        0.36850        2.88430
Ag         3.42560       -0.06490        0.06780
Br         3.42560        2.48690       -0.37520
C          3.42560       -2.18320        0.43560
C          2.77380       -2.96880        1.30460
P          5.88560       -0.06490        0.06780
O          7.20220       -0.80690        0.92340
C          6.75980       -1.89630        1.76380
C          7.83600       -2.25510        2.80760
C          5.47850       -1.69350        2.62520
O          6.05960       -1.43780       -0.95780
C          5.73380       -1.20010       -2.32800
C          6.28410        0.08840       -2.98630
C          6.29530       -2.37020       -3.15080
O          6.50100        1.54510       -0.12150
C          7.90760        1.65020        0.11340
C          8.73010        1.02850       -1.02450
C          8.29050        3.12470        0.22890
H         -2.04090       -0.63780       -0.41850
H         -2.78340       -0.99270       -2.01920
H         -3.12060        0.56860       -1.25050
H         -2.61040        0.91500       -3.67390
H         -2.19340        1.97580       -5.76040
H         -0.65430        1.35710       -6.45590
H         -0.73020        3.02030       -5.77050
H          1.37800        1.69900       -4.74930
H          2.94200        0.19240       -3.68080
H          3.04790        0.24570       -1.93290
H          3.10580        1.77640       -2.91530
H          1.90020       -1.63420       -2.04740
H          0.86810       -2.81180       -2.92550
H          2.30620       -3.35480       -1.98970
H          0.35410       -4.89980       -1.42790
H         -0.85970       -6.58560       -0.30110
H         -2.28050       -5.95190        0.61020
H         -0.76610       -6.40660        1.48490
H         -1.56520       -3.93590        2.22770
H         -1.53880       -1.96960        3.20750
H         -1.53450       -0.59890        2.10300
H         -0.02620       -1.10200        3.03610
H         -1.37830        1.81650       -0.31920
H         -2.17510        3.05400        0.53210
H         -2.74690        1.36750        0.84160
H         -2.30150        2.76300        2.94750
H         -2.19750        3.08300        5.23730
H         -0.53620        3.43410        5.82840
H         -1.26880        1.79740        6.06000
H          1.21500        1.50330        4.90460
H          2.87090        0.35700        3.92720
H          3.23510        0.85040        2.23760
H          2.33390       -0.67030        2.60600
H          4.18540       -2.70570       -0.13050
H          2.06980       -2.63360        2.04300
H          3.01940       -4.02800        1.32450
H          6.62900       -2.76810        1.08700
H          7.86740       -1.49380        3.62350
H          8.84730       -2.32210        2.36950
H          7.58250       -3.22820        3.28970
H          5.63560       -1.09100        3.53930
H          5.10330       -2.69800        2.93910
H          4.67710       -1.16060        2.12520
H          4.63670       -1.21760       -2.42740
H          7.38450        0.04650       -3.09140
H          5.96870        1.01360       -2.47020
H          5.88960        0.17180       -4.02130
H          7.40550       -2.41180       -3.06300
H          6.04350       -2.25080       -4.22810
H          5.87900       -3.33450       -2.79800
H          8.20100        1.21530        1.09190
H          8.50700        1.55490       -1.97560
H          8.52120       -0.05550       -1.12630
H          9.81750        1.13000       -0.82910
H          8.02750        3.67230       -0.70060
H          9.38750        3.21910        0.39800
H          7.76820        3.59010        1.08940
