26

P          1.05550        0.06500       -0.05180
Cl        -0.54150       -0.55960       -1.21760
Cl         1.12330       -1.84310        0.76350
Cl        -0.32110        1.35070        0.81720
Ag         3.51550        0.06500       -0.05180
Br         3.34820        2.25700        1.11830
C          3.52890       -1.51670       -1.37600
C          3.63660       -1.15480       -2.65420
N          5.61550        0.06500       -0.05180
C          6.30650        1.23460        0.10040
C          7.68900        1.27110       -0.10070
C          8.38280        0.06260       -0.30110
O          9.72260        0.01530       -0.49350
C         10.52850        1.08860       -0.85320
C          7.66310       -1.12010       -0.36240
C          6.27890       -1.09690       -0.28920
H          3.41770       -2.56200       -1.08890
H          3.72480       -0.09530       -2.88270
H          3.65130       -1.86840       -3.46620
H          5.79340        2.17130        0.19450
H          8.19050        2.22790       -0.09270
H         11.57740        0.73890       -0.91920
H         10.46670        1.89010       -0.10320
H         10.21000        1.45840       -1.85560
H          8.19050       -2.06820       -0.47110
H          5.75230       -2.03770       -0.34310
