42

P          0.96210        0.07360        0.05610
Cl        -1.07740       -0.27150       -0.08560
Cl         0.92220       -0.41920        2.07050
Cl         0.68780        1.96970       -0.75300
Ag         3.42210        0.07360        0.05610
Br         3.25420        2.36820        1.04200
C          3.38420       -1.81520       -0.78320
C          2.84020       -2.00120       -1.98490
P          5.88210        0.07360        0.05610
C          6.66770       -1.51460        0.68180
C          8.19260       -1.57230        0.91440
C          6.00690       -1.84310        2.03670
C          6.11110       -0.43060       -1.72810
C          5.55050        0.71850       -2.57660
C          7.57000       -0.64620       -2.16400
C          6.39590        1.61570        0.95860
C          6.04600        1.59500        2.45940
C          7.88770        1.93360        0.81130
H          3.82160       -2.65270       -0.25160
H          2.39790       -1.15190       -2.51430
H          2.80890       -2.98330       -2.43150
H          6.36300       -2.34060        0.00220
H          8.50230       -0.89450        1.72750
H          8.82820       -1.36400        0.04480
H          8.45660       -2.59960        1.25600
H          6.31520       -1.13610        2.82870
H          6.29860       -2.85270        2.38840
H          4.89840       -1.80920        1.96510
H          5.55920       -1.34950       -1.98430
H          6.11810        1.66200       -2.37540
H          4.48170        0.88900       -2.34680
H          5.64390        0.48980       -3.65920
H          8.22210        0.19340       -1.84490
H          7.64110       -0.73480       -3.27010
H          7.94540       -1.61740       -1.79980
H          5.86010        2.44530        0.45810
H          6.72670        0.93550        3.03210
H          5.01480        1.25840        2.65560
H          6.16340        2.61590        2.87890
H          8.51580        1.19260        1.33230
H          8.10400        2.91800        1.28280
H          8.17890        1.98350       -0.25320
