86

P          0.96290        0.07860        0.04950
C          0.13490        0.75280       -1.63060
C         -1.40430        0.75020       -1.67510
C          0.54280        2.20870       -2.04890
C          0.64880       -0.02870       -2.86430
C          0.58800       -1.83970        0.11090
C          1.28410       -2.77340       -0.92380
C          1.04040       -2.40470        1.46560
C         -0.92090       -2.13680        0.00420
C          0.22460        1.20130        1.40940
C          0.37110        2.76870        1.74530
C         -0.12380        3.69880        0.65120
C         -0.49660        3.06400        2.99520
C          1.79190        3.24370        2.07870
Ag         3.42290        0.07860        0.04950
Br         3.74900       -1.23030       -2.08380
C          3.43400        0.80830        1.98250
C          2.90950        0.19950        3.04240
P          5.88290        0.07860        0.04950
C          6.98600        0.88290        1.35440
C          6.64900        0.28560        2.74450
C          8.51310        0.74780        1.19400
C          6.65770        2.39870        1.34240
C          6.38050       -1.67150        0.02420
C          7.15520       -2.19170       -1.03240
C          7.62330       -3.50080       -0.98960
C          7.32830       -4.32620        0.10980
C          6.53430       -3.82040        1.15260
C          6.06550       -2.51460        1.11550
C          6.24490        0.86540       -1.56860
C          5.21750        1.43730       -2.34350
C          5.48800        1.98610       -3.60250
C          6.79600        2.01060       -4.09150
C          7.83230        1.48970       -3.31970
C          7.55900        0.91630       -2.07580
H         -1.82180        1.36710       -0.85940
H         -1.86620       -0.22850       -1.65540
H         -1.75590        1.18850       -2.64110
H         -0.15850        2.96310       -1.68960
H          0.32000        2.41600       -3.12200
H          1.62390        2.43620       -1.93120
H          0.26010       -1.04370       -2.90100
H          1.73180        0.04680       -2.95350
H          0.28270        0.39110       -3.82830
H          2.36360       -2.85090       -0.72220
H          1.11610       -2.57760       -1.98330
H          0.93140       -3.81980       -0.80120
H          2.14560       -2.35100        1.55700
H          0.78130       -3.48700        1.54790
H          0.54200       -1.88630        2.30580
H         -1.28100       -2.02890       -1.02620
H         -1.51330       -1.54190        0.72890
H         -1.12650       -3.20980        0.21550
H          0.49420        0.68500        2.34860
H         -0.86710        1.02860        1.30530
H         -1.12580        3.39260        0.28220
H          0.67250        3.77080       -0.10150
H         -0.19930        4.74920        1.00390
H         -1.56710        2.83780        2.80700
H         -0.42470        4.13870        3.28260
H         -0.15450        2.46890        3.86870
H          2.45970        3.07010        1.20550
H          2.16050        2.77830        3.00890
H          1.81550        4.33980        2.26900
H          3.93600        1.73550        2.17000
H          2.40460       -0.73900        2.96910
H          2.98220        0.67130        4.01750
H          7.02700       -0.74870        2.84000
H          5.57710        0.25100        2.96520
H          7.10810        0.87680        3.56290
H          8.81660       -0.31240        1.17550
H          8.99950        1.23260        2.07870
H          8.89420        1.30130        0.32880
H          5.57770        2.61720        1.32210
H          7.05420        2.87670        0.42200
H          7.08650        2.92170        2.22050
H          7.42480       -1.59110       -1.88060
H          8.24280       -3.88080       -1.79960
H          7.69950       -5.33560        0.13180
H          6.31010       -4.46470        1.99080
H          5.46670       -2.14500        1.92850
H          4.19620        1.44200       -1.98980
H          4.68380        2.38340       -4.20640
H          7.00680        2.43430       -5.06510
H          8.84960        1.51760       -3.69090
H          8.38390        0.49460       -1.53170
