35

P          1.03120       -0.04490       -0.08370
C         -0.15100        1.28720        0.29810
C          0.73820        0.02880       -1.88260
C          0.37530       -1.45640        0.81210
C         -0.57830       -2.28560        0.21040
C         -1.12450       -3.35920        0.91890
C         -0.72030       -3.61160        2.23280
C          0.21910       -2.77780        2.84690
C          0.76130       -1.69510        2.14240
Ag         3.49120       -0.04490       -0.08370
Br         3.47180       -2.46500       -0.64930
C          3.51050        1.96540        0.45330
C          3.44800        2.92940       -0.46870
N          5.59120       -0.04490       -0.08370
C          6.39820        0.98200        0.25920
O          7.66560        0.67570        0.10110
C          7.71770       -0.55380       -0.35340
C          6.42900       -1.02920       -0.46090
H         -1.19880        1.04510        0.05570
H          0.16590        2.17900       -0.29720
H         -0.03210        1.58380        1.36150
H         -0.35790        0.00560       -2.07550
H          1.20140       -0.83860       -2.38920
H          1.14390        0.97460       -2.29790
H         -0.91210       -2.09170       -0.79930
H         -1.86460       -3.99260        0.44880
H         -1.14130       -4.44830        2.77590
H          0.52110       -2.97020        3.86930
H          1.47780       -1.04870        2.63520
H          3.65500        2.23690        1.49690
H          3.37770        2.69630       -1.52710
H          3.50820        3.97620       -0.17650
H          6.06550        1.93960        0.62900
H          8.62800       -1.07710       -0.61270
H          6.14850       -2.00050       -0.83490
