61

P          0.94680        0.01910       -0.08250
C          0.10930       -0.91300       -1.56270
C         -1.43260       -0.95870       -1.58520
C          0.56700       -0.25980       -2.89000
C          0.59600       -2.37880       -1.68690
C          0.55790       -0.99270        1.59720
C          1.11380       -2.43470        1.78300
C          1.14630       -0.31830        2.85920
C         -0.95930       -1.10900        1.81890
C          0.20260        1.76490       -0.37170
C          0.16680        3.04450        0.61000
C          1.53770        3.59980        0.93950
C         -0.60380        4.18750       -0.09720
C         -0.55120        2.83560        1.94870
Ag         3.40680        0.01910       -0.08250
Br         3.55150       -2.48270        0.03270
C          3.44840        1.98530       -0.75070
C          4.12930        2.91420       -0.05640
N          5.50680        0.01910       -0.08250
C          6.25890        1.03150       -0.65450
C          7.65550        1.01780       -0.68990
C          8.34310       -0.03700       -0.12660
F          9.69940       -0.06700       -0.15220
C          7.62610       -1.06870        0.45410
C          6.22630       -1.03270        0.45750
H         -1.89710        0.04200       -1.61270
H         -1.86350       -1.55120       -0.77080
H         -1.77820       -1.49660       -2.49790
H          0.21340        0.77890       -2.99640
H          0.15400       -0.82020       -3.76200
H          1.67480       -0.28870       -2.98530
H          0.22860       -3.02140       -0.88140
H          1.69170       -2.43660       -1.79410
H          0.20040       -2.86830       -2.60390
H          2.17660       -2.42990        2.07230
H          0.90150       -3.16070        1.00040
H          0.68010       -2.90730        2.69310
H          2.23790       -0.12680        2.78210
H          0.98940       -0.94430        3.76980
H          0.63510        0.56440        3.19940
H         -1.40170       -1.86510        1.15980
H         -1.46630       -0.12970        1.72060
H         -1.18460       -1.50340        2.83630
H         -0.87430        1.57530       -0.51940
H          0.60980        2.12550       -1.33360
H          1.97000        3.98940       -0.00030
H          2.13470        2.80850        1.44250
H          1.50180        4.47110        1.63300
H         -0.12840        4.45170       -1.06720
H         -0.61220        5.11360        0.52900
H         -1.65770        3.89700       -0.27830
H          0.07990        2.29330        2.61720
H         -1.54840        2.37000        1.83670
H         -0.66170        3.79900        2.49890
H          2.94940        2.25540       -1.67420
H          4.63590        2.64310        0.86430
H          4.19560        3.93890       -0.40850
H          5.84700        1.85140       -1.19390
H          8.19620        1.82360       -1.17360
H          8.15240       -1.90020        0.90520
H          5.76740       -1.85200        0.96290
