76

P          0.96460       -0.05630        0.07470
C         -0.28230       -1.15760       -0.66730
C          0.70000       -0.54940        1.80470
C          0.38970        1.50580       -0.59710
C         -0.28170        2.44540        0.19360
C         -0.80820        3.60340       -0.39490
C         -0.66530        3.81970       -1.77200
C          0.00010        2.88250       -2.56110
C          0.53390        1.73280       -1.97640
Ag         3.42460       -0.05630        0.07470
Br         3.42460        2.16300        1.40980
C          3.42460       -1.89860       -1.03360
C          4.02910       -2.32840       -2.14560
P          5.88460       -0.05630        0.07470
C          6.72230        1.60010       -0.58980
C          6.34350        2.98330        0.00880
C          7.20500        3.37760        1.21200
C          8.69110        3.45780        0.77730
C          9.22520        2.25380       -0.04360
C          8.20910        1.80220       -1.07820
C          6.37510        0.06970        1.93960
C          5.97560       -1.16870        2.81880
C          6.91850       -2.43940        2.77010
C          8.40680       -2.11960        2.87830
C          8.76550       -0.98150        1.92740
C          7.88540        0.22730        2.29730
C          6.43150       -1.57920       -0.85990
C          7.19530       -1.74110       -2.07830
C          7.58270       -0.67040       -3.04260
C          7.55770       -3.03030       -2.51780
C          7.15640       -4.17360       -1.84220
C          6.35850       -4.04770       -0.71900
C          6.00520       -2.78800       -0.25330
H         -1.31680       -0.90270       -0.38010
H         -0.04480       -2.20180       -0.36200
H         -0.16650       -1.12490       -1.77330
H         -0.39060       -0.57430        2.01820
H          1.19370        0.15610        2.49800
H          1.10910       -1.57200        1.95310
H         -0.41860        2.27330        1.25350
H         -1.33750        4.32650        0.21050
H         -1.08970        4.70620       -2.22820
H          0.09490        3.04000       -3.62900
H          1.02140        0.99760       -2.60510
H          2.61670       -2.54590       -0.70700
H          4.74160       -1.74920       -2.70280
H          3.75710       -3.31160       -2.52940
H          6.15770        1.62500       -1.54710
H          5.29040        3.10240        0.16960
H          6.51820        3.77140       -0.75930
H          7.01350        2.71420        2.05740
H          6.89330        4.37550        1.58360
H          9.34830        3.64920        1.65320
H          8.75430        4.34150        0.10750
H          9.55760        1.36130        0.49710
H         10.16610        2.56160       -0.54540
H          8.66050        0.97820       -1.62180
H          8.17320        2.64840       -1.80950
H          5.82460        0.93870        2.33360
H          4.91540       -1.44440        2.65610
H          6.05400       -0.82800        3.87730
H          6.88520       -3.00980        1.87280
H          6.62660       -3.16500        3.55430
H          9.01290       -3.02800        2.64950
H          8.64700       -1.81300        3.91730
H          8.63630       -1.25610        0.85760
H          9.84290       -0.74590        2.08420
H          8.27490        1.12290        1.91870
H          8.00660        0.39730        3.39080
H          7.07620        0.27690       -2.86410
H          7.22340       -0.94910       -4.06270
H          8.68990       -0.58630       -3.10630
H          8.13280       -3.16340       -3.43150
H          7.43040       -5.14950       -2.21290
H          6.00460       -4.93670       -0.20990
H          5.34440       -2.73840        0.59900
