96

P          1.04860        0.03740        0.07900
C          0.09080       -0.70000        1.43220
C         -0.83300       -0.01750        2.23980
C         -1.26330       -0.59290        3.45550
C         -2.22560        0.11130        4.35870
C         -0.74550       -1.83190        3.86740
C          0.14510       -2.52590        3.05460
C          0.53650       -1.97660        1.83190
C          0.89790        1.82770        0.29260
C          1.44960        2.44180        1.42600
C          1.37850        3.82760        1.60740
C          1.97470        4.46670        2.82640
C          0.74910        4.61470        0.63850
C          0.18370        4.01440       -0.49070
C          0.25690        2.62700       -0.66680
C          0.34330       -0.84550       -1.33170
C          1.14450       -1.59110       -2.18720
C          0.55840       -2.32900       -3.23870
C          1.39010       -3.15580       -4.16320
C         -0.83420       -2.30490       -3.40470
C         -1.63750       -1.55140       -2.54730
C         -1.06330       -0.82560       -1.51380
Ag         3.50860        0.03740        0.07900
Br         3.50860        1.04630       -2.30650
C          3.50860       -0.80010        2.05910
C          2.66960       -0.63250        3.08370
P          5.96860        0.03740        0.07900
C          6.91910       -1.55190        0.76700
C          6.45920       -2.74110       -0.14130
C          8.46270       -1.54830        0.75440
C          6.56600       -2.05010        2.20040
C          6.74270        0.58000       -1.60440
C          6.39620        2.07560       -1.89810
C          8.29510        0.64670       -1.67090
C          6.33700       -0.39940       -2.73990
C          6.25340        1.21420        1.43300
C          5.16790        1.84670        2.01960
C          5.33760        2.94280        2.85590
C          6.60510        3.50020        3.12790
N          6.74000        4.74430        3.87990
C          5.60270        5.47270        4.44870
C          8.00850        5.44120        4.06460
C          7.71310        2.82440        2.55590
C          7.53390        1.70490        1.72930
H         -1.16870        0.97470        1.95970
H         -2.59410        1.05700        3.90930
H         -1.73590        0.34300        5.32940
H         -3.09740       -0.55180        4.54940
H         -1.02310       -2.25090        4.82670
H          0.56500       -3.45980        3.38920
H          1.29190       -2.50120        1.25810
H          1.95090        1.85460        2.16600
H          2.35260        3.70140        3.53470
H          1.20790        5.05100        3.37100
H          2.80780        5.13940        2.52730
H          0.69250        5.69020        0.76730
H         -0.30870        4.63520       -1.22960
H         -0.18400        2.18100       -1.54820
H          2.21740       -1.62510       -2.04480
H          2.46670       -3.08470       -3.91130
H          1.23420       -2.81440       -5.20600
H          1.07840       -4.21910       -4.08020
H         -1.30870       -2.87530       -4.19040
H         -2.71160       -1.54620       -2.66700
H         -1.68230       -0.25260       -0.83730
H          4.36860       -1.23170        2.39440
H          1.77820       -0.04690        3.05440
H          2.92130       -1.05330        4.05480
H          6.81830       -2.66770       -1.16700
H          5.34520       -2.78870       -0.17000
H          6.82450       -3.72030        0.23100
H          8.88560       -1.61940       -0.24210
H          8.85900       -2.50090        1.17290
H          8.90270       -0.74740        1.36390
H          5.64220       -2.66590        2.22530
H          6.62090       -1.24830        2.96260
H          7.23890       -2.86640        2.53580
H          6.96630        2.74720       -1.22420
H          5.39490        2.45160       -1.72490
H          6.67930        2.33460       -2.94630
H          8.73040        1.29920       -0.89100
H          8.61930        1.06660       -2.64970
H          8.79460       -0.31620       -1.69190
H          5.29250       -0.74140       -2.70640
H          6.93720       -1.32320       -2.70060
H          6.56470        0.02150       -3.74090
H          4.17010        1.55330        1.77710
H          4.43530        3.35780        3.21700
H          4.61820        5.00700        4.33200
H          5.52780        6.47580        3.97510
H          5.74860        5.60500        5.54070
H          8.88500        4.95100        3.62310
H          8.21110        5.56990        5.14840
H          7.94620        6.45000        3.59880
H          8.73020        3.15360        2.67520
H          8.41340        1.29960        1.26150
