67

P          1.07510        0.06230        0.02190
C          0.07010        1.80020        0.09310
C         -1.47390        1.72660        0.11290
C          0.33570        2.74580        1.33030
C          0.48570        2.69890       -1.10650
C          0.70800       -0.54720       -1.80230
C          1.47860        0.23220       -2.90310
C          1.09920       -2.02320       -2.03550
C         -0.79790       -0.53270       -2.14500
C          0.49260       -0.92120        1.51540
C          0.79020       -0.66950        3.04060
C          0.23100        0.63950        3.60920
C          0.08060       -1.78540        3.83950
C          2.29530       -0.70470        3.34460
Ag         3.53510        0.06230        0.02190
Br         3.53510       -2.51390       -0.24440
C          3.53510        2.20090        0.24290
C          4.00620        3.15770       -0.54930
N          5.63510        0.06230        0.02190
C          6.32440       -0.66790       -0.92550
C          5.63710       -1.31310       -2.09120
C          7.72700       -0.64300       -0.97780
C          8.44070        0.10950       -0.06620
C          7.76390        0.82580        0.89910
C          6.35510        0.81870        0.93770
C          5.72640        1.44010        2.15510
H         -1.82650        1.15410        0.98920
H         -1.96150        1.33620       -0.77090
H         -1.89730        2.75990        0.18360
H         -0.33140        2.55960        2.17500
H         -0.00820        3.78790        1.13220
H          1.34660        2.90840        1.68240
H         -0.07180        2.42740       -2.01070
H          1.57220        2.68860       -1.28950
H          0.21230        3.77170       -0.99230
H          2.56520        0.22960       -2.68930
H          1.18230        1.26520       -3.07600
H          1.31490       -0.23990       -3.89770
H          2.17000       -2.12030       -2.24090
H          0.70580       -2.40780       -3.00360
H          0.71790       -2.69520       -1.23880
H         -1.14970        0.47850       -2.36650
H         -1.39800       -1.05040       -1.36310
H         -1.00950       -1.04150       -3.11250
H          0.86990       -1.94260        1.30620
H         -0.61460       -0.96480        1.39190
H         -0.82980        0.78620        3.28810
H          0.91390        1.46600        3.36140
H          0.23080        0.66110        4.71760
H         -1.01600       -1.77220        3.64120
H          0.21730       -1.64440        4.93700
H          0.47930       -2.78120        3.57320
H          2.81290        0.10580        2.79080
H          2.73350       -1.67800        3.06280
H          2.47200       -0.53870        4.43530
H          3.19830        2.50630        1.20420
H          4.45960        2.96120       -1.51330
H          3.96130        4.18380       -0.18300
H          4.56240       -1.05990       -2.12230
H          5.81770       -2.40720       -2.10340
H          6.04020       -0.87670       -3.03080
H          8.26190       -1.16480       -1.76240
H          9.52250        0.14270       -0.10530
H          8.33880        1.38070        1.63790
H          6.49370        1.75540        2.89910
H          5.10700        0.66970        2.66850
H          5.17060        2.36010        1.98270
