56

P          0.92520       -0.01460        0.06470
C         -0.04910       -0.62950        1.46470
C         -1.44220       -0.54280        1.55770
C         -2.09280       -0.94790        2.73480
C         -1.35140       -1.43490        3.81520
Cl        -2.16960       -1.91630        5.30540
C          0.02980       -1.51140        3.72930
C          0.68200       -1.11760        2.57040
C          0.24840        1.66460        0.08080
C          0.12140        2.36370        1.29590
C         -0.48600        3.62070        1.32990
C         -0.95600        4.20500        0.15070
Cl        -1.73060        5.77790        0.20150
C         -0.82210        3.52330       -1.06540
C         -0.23190        2.25210       -1.09960
C          0.46080       -1.35600       -1.09460
C         -0.43370       -2.41720       -0.80310
C         -0.83780       -3.30310       -1.80220
C         -0.36010       -3.16080       -3.10620
Cl        -0.89140       -4.26790       -4.35990
C          0.53400       -2.13360       -3.40530
C          0.92950       -1.22910       -2.41170
Ag         3.38520       -0.01460        0.06470
Br         3.38520       -2.55460        0.57100
C          3.38520        2.09390       -0.35550
C          4.44820        2.88010       -0.54040
N          5.48520       -0.01460        0.06470
C          6.19310        0.69370        0.99620
O          5.51500        1.28340        2.01640
C          6.07560        1.67850        3.21880
C          7.60230        0.68740        0.94320
C          8.24800        0.01040       -0.08680
C          7.50180       -0.70540       -1.02040
C          6.11170       -0.74950       -0.89440
H         -2.02190       -0.13560        0.73370
H         -3.17030       -0.86070        2.80770
H          0.62000       -1.88590        4.57340
H          1.76550       -1.16360        2.53270
H          0.46370        1.92630        2.22340
H         -0.59730        4.13750        2.27590
H         -1.18600        3.97320       -1.97840
H         -0.14980        1.73010       -2.04360
H         -0.86820       -2.57690        0.16760
H         -1.54950       -4.08820       -1.56890
H          0.90010       -2.01270       -4.41750
H          1.59720       -0.42060       -2.67770
H          2.44110        2.59640       -0.44590
H          5.46450        2.53140       -0.50550
H          4.29060        3.93510       -0.74900
H          5.28420        2.08440        3.88110
H          6.84170        2.46280        3.05630
H          6.53760        0.80500        3.73580
H          8.20200        1.19720        1.68500
H          9.32860        0.03360       -0.15780
H          7.99620       -1.21440       -1.83780
H          5.52300       -1.27700       -1.63320
