106

P          0.92100       -0.05730        0.02180
C         -0.25760       -1.32960        0.71610
C         -1.53690       -1.27070        1.34260
C         -2.03120       -2.44150        2.00670
C         -1.31050       -3.63930        2.00930
F         -1.72810       -4.73710        2.68660
C         -0.11260       -3.67300        1.34830
C          0.36340       -2.54400        0.73800
C          0.42330        0.99690        1.49450
C          0.24990        0.54870        2.83100
C         -0.16070        1.43600        3.84320
C         -0.37580        2.78600        3.56130
F         -0.75540        3.64580        4.54040
C         -0.19920        3.25230        2.26680
C          0.17600        2.37090        1.25520
C          0.25850        0.14880       -1.67880
C          0.09770        1.44120       -2.22800
C         -0.35490        1.62960       -3.53450
C         -0.64830        0.52950       -4.33510
F         -1.07090        0.71600       -5.61190
C         -0.49010       -0.76160       -3.82260
C         -0.04190       -0.95480       -2.50210
Ag         3.38100       -0.05730        0.02180
Br         3.38100       -0.45680        2.58080
C          3.38100        0.27440       -2.10250
C          4.48340        0.35290       -2.85400
C          5.53100       -0.05730        0.02180
N          6.33150        1.12420       -0.18370
C          6.19350        2.64510       -0.33340
C          5.23010        3.36670        0.43230
C          4.39440        2.72860        1.42000
C          3.20340        2.35550        0.58870
C          5.26070        1.87730        2.40410
C          5.05090        4.75700        0.40030
C          5.85100        5.55500       -0.32470
C          6.88830        4.98830       -1.00400
C          7.11720        3.56740       -1.03400
C          8.36970        3.21690       -1.82550
C          8.22810        3.70570       -3.27990
C          9.62860        3.87030       -1.18850
C          7.55510        0.71990        0.16070
C          7.54780       -0.58560        0.52680
N          6.34070       -1.18830        0.36220
C          6.26860       -2.74650        0.57170
C          5.05310       -3.57750        0.57770
C          3.62870       -3.16540        0.43330
C          2.85640       -4.07840       -0.64970
C          3.11810       -3.33740        1.90530
C          5.08000       -4.98510        0.80350
C          6.18910       -5.69680        0.92830
C          7.34950       -5.04390        0.81860
C          7.48180       -3.63260        0.66160
C          8.98860       -3.37470        0.44560
C          9.85350       -3.92310        1.63540
C          9.28840       -3.90040       -0.97970
H         -2.09360       -0.35410        1.40420
H         -2.96380       -2.41610        2.55140
H          0.51260       -4.58900        1.33920
H          1.29350       -2.51890        0.28890
H          0.40380       -0.48510        3.10100
H         -0.31420        1.07960        4.85270
H         -0.35410        4.30100        2.03750
H          0.29660        2.80130        0.28820
H          0.33710        2.32710       -1.68270
H         -0.46610        2.63280       -3.93040
H         -0.70820       -1.61060       -4.45910
H          0.08350       -1.96480       -2.13940
H          2.46610        0.38860       -2.64460
H          5.47930        0.24740       -2.45680
H          4.39290        0.52620       -3.92180
H          3.95470        3.45540        2.13390
H          3.47270        1.91730       -0.37790
H          2.65290        3.26980        0.25480
H          2.59840        1.73710        1.19760
H          5.54360        0.86200        2.14390
H          4.78450        1.80470        3.39870
H          6.25810        2.34340        2.53860
H          4.26530        5.23850        0.98070
H          5.69250        6.63060       -0.32070
H          7.53060        5.69550       -1.50050
H          8.51790        2.11780       -1.84600
H          8.12150        4.81080       -3.34940
H          7.32450        3.25910       -3.74210
H          9.12500        3.45150       -3.87840
H          9.60790        4.98100       -1.25620
H         10.55340        3.54560       -1.70930
H          9.72240        3.61620       -0.11210
H          8.42390        1.36380        0.25710
H          8.41100       -0.96390        0.94540
H          3.63520       -2.12800        0.08910
H          2.61170       -5.08740       -0.25700
H          3.44230       -4.18980       -1.58050
H          1.86290       -3.80520       -1.04590
H          2.98630       -4.38620        2.21810
H          2.21290       -2.80940        2.19510
H          3.89470       -2.95700        2.60620
H          4.20530       -5.61230        0.87930
H          6.13880       -6.77140        1.07470
H          8.17570       -5.74320        0.84250
H          9.38740       -2.39430        0.32020
H          9.80290       -5.01730        1.81700
H          9.50890       -3.45700        2.58830
H         10.92900       -3.70910        1.50330
H          9.44320       -4.99800       -1.04810
H          8.38620       -3.71670       -1.59240
H          9.95340       -3.23720       -1.57730
