61

P          1.06960       -0.06970        0.01730
C          0.41120        1.50200       -0.63930
C         -0.89280        1.85930       -1.08190
C         -2.05390        0.91540       -1.12080
C         -1.12350        3.17920       -1.52940
C         -0.11010        4.13940       -1.50780
C          1.15440        3.80030       -1.05020
C          1.40790        2.50120       -0.62850
C          0.96700       -1.25900       -1.44190
C          1.54740       -2.60070       -1.43390
C          2.51270       -3.19340       -0.44110
C          1.21140       -3.52200       -2.45850
C          0.40660       -3.15130       -3.51620
C         -0.06150       -1.84700       -3.59790
C          0.21230       -0.92160       -2.58400
C          0.22180       -0.26040        1.65980
C         -0.23600       -1.52290        2.15750
C         -0.03080       -2.79890        1.43370
C         -0.85540       -1.62410        3.41200
C         -1.05100       -0.49760        4.19200
C         -0.63060        0.74570        3.72600
C          0.00210        0.86790        2.47630
Ag         3.52960       -0.06970        0.01730
Br         3.52960        0.38160       -2.53310
C          3.52960       -0.44430        2.13440
C          4.40570       -0.37110        3.15030
N          5.62960       -0.06970        0.01730
C          6.30270        0.58590       -0.98370
C          7.69770        0.60390       -1.04700
C          8.43320       -0.11220       -0.11410
C          7.76450       -0.82790        0.86760
C          6.36890       -0.78150        0.92470
H         -1.79130       -0.08360       -0.72690
H         -2.40230        0.81020       -2.17420
H         -2.88880        1.33370       -0.52110
H         -2.10100        3.47460       -1.88620
H         -0.30330        5.15130       -1.83990
H          1.94230        4.54270       -1.01570
H          2.40860        2.28120       -0.26980
H          2.86460       -2.48150        0.32150
H          3.41490       -3.56560       -0.98100
H          2.08320       -4.10400        0.02710
H          1.58750       -4.53860       -2.43480
H          0.15860       -3.87510       -4.28330
H         -0.67050       -1.55990       -4.44190
H         -0.20910        0.04720       -2.71260
H          1.04800       -2.90840        1.43920
H         -0.49750       -2.77200        0.42900
H         -0.40960       -3.69300        1.97330
H         -1.17360       -2.58770        3.79860
H         -1.52470       -0.60320        5.16040
H         -0.79810        1.61510        4.34490
H          0.31260        1.84880        2.15140
H          2.54710       -0.72170        2.47630
H          5.43270       -0.05190        3.09100
H          4.05710       -0.63280        4.14740
H          5.79070        1.18000       -1.71190
H          8.20150        1.17060       -1.81980
H          9.51380       -0.12890       -0.16650
H          8.32040       -1.43700        1.56900
H          5.90670       -1.44100        1.62800
