64

P          0.91770        0.05230        0.02220
C          0.09230        1.44600       -1.04820
C         -1.44480        1.44210       -1.09520
C          0.54320        2.82500       -0.51110
C          0.56570        1.46800       -2.52980
C          0.56710       -1.70800       -0.84090
C          1.23200       -2.01150       -2.20910
C          1.07800       -2.91990       -0.00600
C         -0.94410       -1.94440       -1.04340
C          0.25460        0.52510        1.75760
C          0.23770       -0.35760        3.10730
C          1.61280       -0.67980        3.67810
C         -0.51040        0.43500        4.20530
C         -0.50190       -1.69240        2.99070
Ag         3.37770        0.05230        0.02220
Br         3.43420        0.02720       -2.48830
C          3.64860        0.72870        1.94910
C          3.96960        2.01490        2.11290
N          5.47770        0.05230        0.02220
C          6.21580        0.20610       -1.14200
C          7.60500        0.11420       -1.17390
C          8.29860       -0.21580       -0.02080
C          9.79120       -0.41380       -0.05280
C          7.58280       -0.35970        1.16750
C          6.18980       -0.20340        1.16870
H         -1.89550        1.56640       -0.09960
H         -1.86530        0.55980       -1.58160
H         -1.79790        2.28890       -1.72850
H          0.17810        3.01310        0.51080
H          0.14490        3.64580       -1.15180
H          1.65470        2.91330       -0.52890
H          0.29830        0.56890       -3.09460
H          1.62820        1.72880       -2.61160
H          0.09730        2.29380       -3.10410
H          2.31480       -2.20230       -2.08850
H          1.02350       -1.31090       -3.01740
H          0.86790       -2.98110       -2.62150
H          2.13940       -2.81370        0.29920
H          1.00890       -3.87200       -0.58640
H          0.42210       -3.21820        0.79380
H         -1.33080       -1.36100       -1.89070
H         -1.51350       -1.75150       -0.11060
H         -1.14930       -2.99710       -1.34640
H         -0.82300        0.69620        1.58320
H          0.71030        1.50080        2.01710
H          2.09880        0.26420        4.00030
H          2.18370       -1.27850        2.93470
H          1.55440       -1.30560        4.59510
H         -0.01480        1.40750        4.40580
H         -0.51590       -0.13560        5.16480
H         -1.56690        0.61500        3.91890
H          0.13440       -2.39210        2.49080
H         -1.49970       -1.59580        2.52050
H         -0.61880       -2.17810        3.98590
H          3.75240        0.08650        2.79320
H          4.00990        2.68010        1.25520
H          4.24870        2.39810        3.09030
H          5.79960        0.46500       -2.07900
H          8.13350        0.27640       -2.11080
H         10.20520       -0.20870       -1.07040
H         10.02440       -1.46840        0.19810
H         10.29170        0.25940        0.67430
H          8.10170       -0.66060        2.07720
H          5.73450       -0.41990        2.11930
