46

P          0.98330        0.07030        0.06910
Cl        -0.91080        0.80140       -0.35200
Cl         0.90960       -1.07730       -1.66190
Cl         0.45840       -0.56010        1.97470
Ag         3.44330        0.07030        0.06910
Br         3.17720       -2.40220        0.33900
C          3.32440        2.04550       -0.53160
C          2.77820        2.95460        0.27590
P          5.90330        0.07030        0.06910
N          6.86970       -1.18020       -0.80450
C          6.31450       -1.25510       -2.17480
C          8.34800       -1.30300       -0.89300
C          9.07960       -1.13430        0.41430
N          8.83850        0.15520        1.03360
C          8.98030        1.46600        0.35220
C          7.98390        1.75710       -0.81280
N          6.54220        1.64140       -0.50980
C          6.12640        2.79090        0.32250
N          6.33860       -0.73200        1.63660
C          5.30720       -1.49850        2.32040
C          6.96800        0.23770        2.56910
C          8.47670        0.14240        2.45370
H          3.69710        2.33530       -1.50870
H          2.40980        2.65500        1.25110
H          2.70870        3.99310       -0.02900
H          5.20650       -1.33790       -2.14570
H          6.69380       -2.14830       -2.70640
H          6.58530       -0.34480       -2.75270
H          8.81100       -0.70010       -1.68490
H          8.56860       -2.33980       -1.23640
H         10.17210       -1.28570        0.24810
H          8.73410       -1.97150        1.06560
H         10.02170        1.56030       -0.02310
H          8.87860        2.27130        1.10820
H          8.18230        1.18490       -1.73490
H          8.20230        2.78210       -1.17760
H          5.93220        3.66510       -0.33630
H          6.89850        3.09920        1.05060
H          5.24320        2.57100        0.93680
H          4.37140       -0.90800        2.42650
H          5.64110       -1.79540        3.33780
H          5.22470       -2.48010        1.82740
H          6.63540        1.26850        2.36760
H          6.73320        0.05550        3.64010
H          8.80620       -0.82440        2.91550
H          8.98800        0.93610        3.02570
