66

P          1.03500        0.09050        0.02420
C          0.43600       -0.07500        1.77750
C         -0.39760       -1.15500        2.17450
C         -0.91230       -1.24730        3.47000
C         -0.59600       -0.28230        4.41830
C          0.22680        0.78210        4.06580
C          0.72280        0.88940        2.76260
C          0.72740        1.69130       -0.76030
C          0.04330        2.71480       -0.08130
C         -0.21980        3.93330       -0.71360
C          0.20620        4.14740       -2.02540
C          0.89560        3.14090       -2.70680
C          1.15340        1.91510       -2.07910
C         -0.17180       -1.00580       -0.85140
C         -1.66150       -0.95080       -0.70540
C         -2.35620        0.05950       -0.04320
C         -3.74090       -0.01590        0.08360
C         -4.44150       -1.10970       -0.43810
C         -3.75520       -2.12780       -1.09890
C         -2.37330       -2.04560       -1.23870
Ag         3.49500        0.09050        0.02420
Br         3.52860        2.12840        1.46910
C          3.63880       -1.63580       -1.22590
C          2.74320       -2.46250       -1.76690
C          5.64500        0.09050        0.02420
N          6.43730       -1.02910        0.01410
C          6.12930       -2.45130        0.19910
C          7.71020       -0.60680       -0.00870
C          7.71800        0.75430       -0.01030
N          6.44440        1.20890        0.00500
C          6.14370        2.60470       -0.27340
C          4.96940        2.97180       -0.96490
C          4.72170        4.30740       -1.30610
C          5.65680        5.29570       -0.99410
C          6.83830        4.95130       -0.33880
C          7.08320        3.62170        0.01660
H         -0.69320       -1.94290        1.50830
H         -1.56520       -2.06960        3.73510
H         -0.99630       -0.35430        5.42140
H          0.46730        1.53990        4.80020
H          1.29640        1.75620        2.55070
H         -0.30700        2.57640        0.92990
H         -0.75940        4.71060       -0.18710
H         -0.00070        5.09200       -2.51300
H          1.22420        3.31090       -3.72410
H          1.68130        1.14270       -2.62320
H          0.08310       -2.00800       -0.46940
H          0.06120       -0.97160       -1.94000
H         -1.83110        0.89770        0.37710
H         -4.27090        0.76920        0.59880
H         -5.51290       -1.17330       -0.32540
H         -4.28730       -2.98450       -1.49670
H         -1.84850       -2.85590       -1.74210
H          4.62850       -1.86860       -1.55480
H          1.70820       -2.41730       -1.61390
H          3.08880       -3.27120       -2.40550
H          5.07660       -2.61420        0.49700
H          6.72100       -2.84810        1.05040
H          6.40100       -3.03060       -0.71090
H          8.58100       -1.25200       -0.01050
H          8.61300        1.35590       -0.08460
H          4.24200        2.22230       -1.25040
H          3.80930        4.57590       -1.82450
H          5.47170        6.32740       -1.26880
H          7.57120        5.71550       -0.11040
H          8.01480        3.39790        0.51460
