65

P          1.02640       -0.08630        0.04310
C          0.24020        1.49820       -0.48110
C         -0.83030        1.57370       -1.39330
C         -1.24350        2.82080       -1.90280
C         -0.59470        3.99740       -1.51750
C          0.46290        3.93710       -0.62580
C          0.86960        2.70820       -0.12920
C          0.67200       -1.07820       -1.44190
C          1.16190       -0.65960       -2.69730
C          1.05220       -1.50330       -3.81580
C          0.42700       -2.73460       -3.68990
C         -0.09350       -3.14110       -2.46240
C          0.02690       -2.31610       -1.34300
C          0.37930       -0.23730        1.73960
C          0.65200       -1.42470        2.47560
O          1.45880       -2.38730        1.93540
C          1.80060       -3.58600        2.53580
C          0.04190       -1.61990        3.72670
C         -0.82810       -0.66810        4.25880
C         -1.10630        0.49590        3.54800
C         -0.50800        0.71400        2.30220
Ag         3.48640       -0.08630        0.04310
Br         3.37490        1.60110        1.87240
C          3.38270       -1.63360       -1.34410
C          4.16290       -1.74650       -2.40110
P          5.94640       -0.08630        0.04310
N          6.97360        0.79700        1.21380
C          6.70340        0.28450        2.56740
C          8.40580        0.88400        0.93790
O          7.14140       -1.27560       -0.28700
C          6.57330       -2.43180       -0.84530
O          6.02580        1.13670       -1.16290
C          5.76540        2.43340       -0.68780
H         -1.32350        0.68060       -1.74570
H         -2.05100        2.87850       -2.61740
H         -0.88450        4.96130       -1.92340
H          0.99760        4.83450       -0.33360
H          1.70270        2.74840        0.50360
H          1.69310        0.27240       -2.80070
H          1.48270       -1.20630       -4.75950
H          0.36520       -3.42240       -4.54030
H         -0.55320       -4.11950       -2.37610
H         -0.34400       -2.66690       -0.38380
H          2.44640       -4.16980        1.84920
H          0.88600       -4.18310        2.74890
H          2.35860       -3.39870        3.47440
H          0.21330       -2.51600        4.31190
H         -1.30080       -0.84250        5.21730
H         -1.79570        1.21950        3.95140
H         -0.78880        1.61240        1.78250
H          2.61420       -2.38460       -1.22860
H          4.86290       -0.95790       -2.62940
H          4.01740       -2.57890       -3.08380
H          5.60660        0.10640        2.72270
H          6.98520        1.05100        3.32110
H          7.23250       -0.66360        2.77540
H          8.57710        1.36430       -0.04470
H          8.90620       -0.10440        1.00850
H          8.86150        1.54680        1.70690
H          7.27140       -3.28400       -0.72090
H          6.51380       -2.27680       -1.93420
H          5.62350       -2.77330       -0.36320
H          6.69010        3.04380       -0.77360
H          5.41720        2.49020        0.35570
H          4.98020        2.87810       -1.32930
