64

P          0.99490       -0.00180       -0.09990
O          0.50840       -0.94720       -1.44510
C         -0.79430       -1.48130       -1.28800
C         -1.06730       -2.44690       -2.43040
O          0.87170       -0.28390        1.57460
C          1.44860       -1.55350        1.80380
C          1.04840       -2.07420        3.17410
C         -0.40720        1.15820       -0.14720
C         -1.23920        1.52480        0.91780
C         -2.29840        2.42420        0.69180
C         -2.53380        2.94080       -0.58910
C         -1.70330        2.59100       -1.64550
C         -0.64000        1.72490       -1.42340
Ag         3.45490       -0.00180       -0.09990
Br         3.45490        1.71880        1.83600
C          3.45490       -1.43010       -1.70690
C          2.64620       -2.43690       -2.04710
C          5.60490       -0.00180       -0.09990
N          6.35480        1.05150        0.12010
C          5.92350        2.45190       -0.04690
C          6.57800        3.40920        0.97080
C          6.30080        2.93570       -1.46230
C          7.76480        0.72840        0.03550
C          7.79830       -0.76350       -0.00280
N          6.47290       -1.11190       -0.45520
C          6.16810       -2.50650       -0.78810
C          6.63300       -2.78490       -2.23280
C          6.86610       -3.51420        0.14550
H         -1.56650       -0.69210       -1.39120
H         -0.91130       -2.01480       -0.32130
H         -0.93310       -1.93040       -3.40560
H         -2.11330       -2.81470       -2.36920
H         -0.37700       -3.31410       -2.38270
H          2.55710       -1.47280        1.76640
H          1.09890       -2.32470        1.07460
H          1.36510       -1.36300        3.96720
H          1.55340       -3.05240        3.35650
H         -0.04630       -2.22960        3.22830
H         -1.08650        1.13660        1.91650
H         -2.94670        2.71150        1.50500
H         -3.36140        3.61850       -0.76630
H         -1.87700        2.98280       -2.64230
H         -0.01060        1.46040       -2.26690
H          4.32130       -1.31130       -2.32990
H          1.79530       -2.75140       -1.47170
H          2.89570       -3.02720       -2.92590
H          4.83430        2.55900       -0.05880
H          7.68700        3.34510        0.91840
H          6.24530        3.19080        2.00050
H          6.31100        4.46070        0.72490
H          7.40110        2.96520       -1.63280
H          5.93340        3.96700       -1.65060
H          5.85070        2.26850       -2.23490
H          8.38130        1.13670        0.86720
H          8.16200        1.08300       -0.93760
H          7.89910       -1.14700        1.03820
H          8.62640       -1.14600       -0.63580
H          5.10410       -2.71810       -0.65680
H          7.73620       -2.68190       -2.31310
H          6.20150       -2.06950       -2.95860
H          6.34980       -3.81050       -2.54680
H          7.97290       -3.44100        0.06780
H          6.58450       -4.55080       -0.14280
H          6.56270       -3.34560        1.19870
