77

P          1.02450       -0.08730        0.04210
C          0.08740        1.18380       -0.99640
C         -1.43440        1.10630       -1.20160
C         -2.20220        1.61470        0.02120
C         -1.80720        3.06250        0.35490
C         -0.30040        3.19210        0.56660
C          0.46320        2.65370       -0.64180
C          0.52520       -1.67310       -0.90370
C          0.82430       -1.80770       -2.42830
C          2.22250       -2.34490       -2.74470
C          2.40490       -3.73220       -2.10740
C          2.24760       -3.59160       -0.61190
C          0.86920       -3.01940       -0.21160
C          0.57470        0.14050        1.83780
C         -0.59350       -0.38410        2.50900
C         -1.57100       -1.39350        1.95980
C         -0.93210        0.05470        3.80370
C         -0.15080        0.97770        4.47820
C          1.00760        1.46230        3.88260
C          1.36780        1.05500        2.58450
Ag         3.48450       -0.08730        0.04210
Br         3.48450       -1.98700        1.80260
C          3.48450        1.48960       -1.41930
C          4.42160        2.42140       -1.59690
P          5.94450       -0.08730        0.04210
N          6.89870       -1.59510        0.00380
C          8.34070       -1.43710       -0.12050
C          8.70790        0.02500        0.06370
C         10.24030        0.16770        0.02990
C          8.11650        0.82880       -1.14630
N          6.66860        0.67080       -1.35290
N          6.62800        0.14360        1.63610
C          8.07870        0.49060        1.44770
H          0.50910        1.01900       -2.00340
H         -1.75550        0.08860       -1.49780
H         -1.69540        1.77050       -2.04830
H         -1.98650        0.96930        0.87330
H         -3.29080        1.57210       -0.18810
H         -2.32730        3.38310        1.28170
H         -2.10600        3.73050       -0.47710
H         -0.03280        2.64720        1.46750
H         -0.02390        4.25340        0.74270
H          1.54680        2.78630       -0.46260
H          0.19780        3.30030       -1.50730
H         -0.56990       -1.60230       -0.88710
H          0.61770       -0.87890       -2.98160
H          0.11830       -2.57060       -2.83540
H          2.99280       -1.63470       -2.37110
H          2.34630       -2.45540       -3.84210
H          3.42760       -4.11670       -2.32240
H          1.66810       -4.46670       -2.49710
H          3.06220       -2.91800       -0.38320
H          2.41320       -4.56420       -0.09870
H          0.75720       -2.93370        0.88980
H          0.12780       -3.77980       -0.54800
H         -1.30870       -1.77850        0.98790
H         -2.59400       -0.96040        1.90070
H         -1.61140       -2.26130        2.64970
H         -1.83070       -0.30730        4.29580
H         -0.45020        1.31610        5.46460
H          1.60630        2.18120        4.42050
H          2.24740        1.49540        2.14280
H          2.61190        1.58430       -2.04350
H          5.29170        2.49910       -0.96830
H          4.28340        3.18120       -2.35990
H          6.54230       -2.19090       -0.78070
H          8.68910       -1.81160       -1.11490
H          8.81900       -2.06970        0.65530
H         10.63920       -0.21510       -0.93920
H         10.70850       -0.42880        0.84040
H         10.54000        1.22950        0.13220
H          8.62560        0.52040       -2.09050
H          8.33520        1.90770       -1.01340
H          6.47610        0.04260       -2.16950
H          6.50380       -0.72390        2.21300
H          8.65750        0.02680        2.27370
H          8.21750        1.59310        1.53590
