54

P          0.98080       -0.04730        0.08600
C         -0.09820       -0.37790        1.63790
C         -1.62530       -0.26030        1.51860
C          0.19130       -1.81110        2.14540
C          0.29290        0.62480        2.76240
C          0.53480        1.70330       -0.15690
C          1.32660        2.72440        0.39570
C          0.86690        4.05360        0.39140
C         -0.37790        4.36890       -0.15530
C         -1.16430        3.36850       -0.71870
C         -0.71140        2.05070       -0.72270
C          0.40870       -1.33070       -1.07850
C         -0.95330       -1.41680       -1.44000
C         -1.43000       -2.44590       -2.24310
C         -0.55410       -3.41110       -2.72070
C          0.80420       -3.34160       -2.38850
C          1.28590       -2.30500       -1.57510
Ag         3.44080       -0.04730        0.08600
Br         3.44080        0.51900       -2.44130
C          3.44080       -0.51750        2.18390
C          3.65640       -1.68660        2.79090
N          5.54080       -0.04730        0.08600
C          6.24150       -0.24100        1.26180
C          7.63780       -0.20390        1.30860
C          8.36210        0.03470        0.15530
C          7.68290        0.23480       -1.03110
C          6.28190        0.18740       -1.05210
H         -2.06630       -1.05980        0.90750
H         -1.93760        0.74560        1.18610
H         -2.08290       -0.41620        2.52340
H         -0.16000       -2.57080        1.42360
H         -0.27770       -1.99790        3.13210
H          1.25500       -1.97680        2.28210
H          0.07170        1.67400        2.48410
H          1.34110        0.57920        3.04540
H         -0.25800        0.42270        3.70570
H          2.26630        2.49250        0.87460
H          1.45640        4.83510        0.84630
H         -0.74900        5.38650       -0.13180
H         -2.14090        3.60720       -1.12750
H         -1.37210        1.31850       -1.12940
H         -1.68810       -0.71820       -1.10620
H         -2.48720       -2.49810       -2.48880
H         -0.93270       -4.22010       -3.33480
H          1.47650       -4.10100       -2.75900
H          2.33290       -2.28620       -1.31370
H          3.36030        0.35620        2.81570
H          3.80020       -2.60950        2.24920
H          3.67160       -1.69600        3.88130
H          5.78370       -0.41420        2.20270
H          8.15250       -0.34810        2.24990
H          9.44140        0.07920        0.18370
H          8.23640        0.42260       -1.94500
H          5.86440        0.34970       -2.00860
