42

P          1.27500        0.00000        0.00000
N          0.29620        1.42210       -0.43850
C         -1.15220        1.24540       -0.42780
C         -1.48330       -0.19540       -0.08540
C         -3.01460       -0.34820       -0.11620
C         -0.80500       -1.12470       -1.16960
N          0.66890       -0.97030       -1.32440
N          0.52190       -0.16100        1.56910
C         -0.91710       -0.49580        1.36050
Ag         3.73500        0.00030       -0.00050
Br         3.43660        0.99860       -2.29120
C          3.70090       -0.88810        1.87270
C          4.15840       -0.16090        2.90480
N          5.83500        0.00060       -0.00090
C          6.55040        0.93130       -0.71620
C          5.91780        2.22240       -1.14260
C          7.94720        0.86550       -0.79220
C          8.61990       -0.15600       -0.13780
C          7.90040       -1.05520        0.64300
C          6.50870       -0.93750        0.73380
H          0.60710        1.78880       -1.35790
H         -1.56200        1.52050       -1.43090
H         -1.58550        1.94340        0.31190
H         -3.40960       -0.08240       -1.12430
H         -3.48810        0.34700        0.61510
H         -3.31810       -1.38550        0.12440
H         -1.28460       -0.92820       -2.15920
H         -1.02830       -2.17860       -0.91620
H          0.88620       -0.47000       -2.21820
H          0.61820        0.76240        2.05180
H         -1.51090        0.07630        2.11030
H         -1.07630       -1.57160        1.58030
H          3.31050       -1.88430        2.03220
H          4.53860        0.84600        2.71940
H          4.15510       -0.54210        3.91250
H          4.90440        2.32500       -0.70810
H          5.96500        2.39170       -2.23480
H          6.44490        3.05790       -0.62910
H          8.51030        1.63090       -1.31510
H          9.69720       -0.22350       -0.19910
H          8.41680       -1.84930        1.16550
H          5.98420       -1.68350        1.30430
