73

P          1.00300        0.05910       -0.08060
C          0.33010        1.91660       -0.69350
C          1.30940        2.42700       -1.71640
C          0.85030        1.96960       -3.17610
C         -0.16060        2.91820       -3.68490
C         -1.32840        2.89590       -2.68340
C         -0.89110        2.88520       -1.17270
C          0.56700       -0.91610       -1.65400
C          0.91220       -2.43720       -1.67380
C         -0.10100       -3.36230       -0.95670
C         -1.51010       -3.19010       -1.53520
C         -1.93770       -1.74110       -1.36780
C         -0.94200       -0.80600       -2.08870
C         -0.01140       -0.72350        1.44270
C         -1.36120       -0.25360        1.72730
C         -2.09740        0.80550        1.00980
C         -2.21050       -0.86050        2.71120
C         -1.81410       -1.93340        3.44950
C         -2.76590       -2.63630        4.38660
C         -0.52970       -2.40130        3.28750
C          0.37150       -1.87580        2.30390
C          1.61400       -2.77060        2.38080
Ag         3.46300        0.05910       -0.08060
Br         3.46300        0.85480       -2.54530
C          3.46300       -0.60140        1.96540
C          4.38200       -0.80390        2.92810
N          5.56300        0.05910       -0.08060
C          6.21630        0.95160       -0.88730
C          7.61190        1.00740       -0.93070
F          8.23580        1.96560       -1.65980
C          8.35490        0.07450       -0.21720
C          7.69330       -0.88550        0.53890
C          6.29810       -0.85970        0.61260
H          0.56800        2.42860        0.26660
H          2.20640        2.21120       -1.13550
H          1.49540        3.51930       -1.77960
H          0.35860        1.00030       -3.27000
H          1.65200        1.94690       -3.96290
H         -0.49480        2.62920       -4.70430
H          0.36830        3.89280       -3.76020
H         -1.94330        2.00880       -2.89320
H         -1.93990        3.79460       -2.92480
H         -1.77750        2.91920       -0.52280
H         -0.50450        3.93080       -1.03840
H          1.23770       -0.53130       -2.41220
H          1.94020       -2.61140       -1.30170
H          0.89120       -2.76500       -2.74270
H         -0.12280       -3.15800        0.12420
H          0.20220       -4.42030       -1.09900
H         -2.23660       -3.86350       -1.01930
H         -1.51960       -3.45260       -2.61630
H         -2.01240       -1.53460       -0.29450
H         -2.95560       -1.60480       -1.79920
H         -1.31320        0.21600       -1.98930
H         -1.00690       -1.07320       -3.16690
H         -1.66610        0.92240        0.04940
H         -2.18780        1.73050        1.62750
H         -3.11390        0.45760        0.72900
H         -3.22400       -0.49620        2.83550
H         -3.77990       -2.18140        4.37010
H         -2.38900       -2.62590        5.42940
H         -2.87640       -3.69900        4.05990
H         -0.26400       -3.24640        3.91350
H          1.35530       -3.84850        2.43350
H          2.10780       -2.57060        3.37060
H          2.31860       -2.67810        1.54910
H          2.47490       -0.59460        2.34540
H          5.44690       -0.70140        2.85650
H          4.04200       -1.05470        3.92750
H          5.67020        1.70300       -1.42980
H          9.43600        0.08260       -0.26580
H          8.25340       -1.65790        1.05000
H          5.81740       -1.67810        1.11690
