70

P          0.98940       -0.09460        0.03080
C         -0.02440       -1.46270       -0.81380
C         -1.55930       -1.48120       -0.68770
C          0.25450       -1.40880       -2.34620
C          0.43630       -2.80960       -0.17400
C          0.42850       -0.25480        1.76070
C          1.10060       -1.08160        2.67580
C          0.56030       -1.30600        3.95600
C         -0.65530       -0.72130        4.32120
C         -1.32560        0.10230        3.42110
C         -0.78880        0.33450        2.16110
C          0.45530        1.42290       -0.84400
C         -0.91590        1.74880       -0.95210
C         -1.35410        2.87950       -1.63460
C         -0.42900        3.72530       -2.23170
C          0.93710        3.43330       -2.14060
C          1.37840        2.28870       -1.45440
Ag         3.44940       -0.09460        0.03080
Br         3.44940        2.08850        1.42450
C          3.44940       -1.90670       -1.12610
C          4.36160       -2.86500       -0.91160
C          5.59940       -0.09460        0.03080
N          6.44000        0.46990        0.98900
C          6.20420        1.02120        2.34590
C          6.98280        0.23490        3.41620
C          6.61830        2.50830        2.40960
C          7.69590        0.33200        0.54380
C          7.67520       -0.29010       -0.64380
N          6.40400       -0.58870       -0.99220
C          6.14640       -1.07220       -2.37890
C          6.26470        0.10400       -3.34470
C          7.05580       -2.26580       -2.76090
H         -2.05060       -0.69910       -1.28480
H         -1.88570       -1.46070        0.37130
H         -1.93990       -2.42240       -1.14660
H         -0.27820       -0.54750       -2.80530
H         -0.09350       -2.33230       -2.85860
H          1.28300       -1.20370       -2.67250
H          0.07290       -2.88370        0.87120
H          1.51790       -2.96610       -0.09410
H          0.02930       -3.68610       -0.72640
H          2.01750       -1.57790        2.39480
H          1.06640       -1.95210        4.66120
H         -1.08820       -0.90760        5.29380
H         -2.27960        0.54870        3.69080
H         -1.36250        0.95610        1.50640
H         -1.69030        1.15500       -0.51750
H         -2.41600        3.09120       -1.70010
H         -0.77810        4.60170       -2.76430
H          1.64960        4.09740       -2.61140
H          2.43600        2.07400       -1.40580
H          2.66590       -2.25060       -1.74940
H          5.17010       -2.73480       -0.20500
H          4.28460       -3.81300       -1.43820
H          5.16950        0.87190        2.66550
H          8.07800        0.31170        3.26700
H          6.68630       -0.83220        3.38370
H          6.74840        0.63740        4.42490
H          7.70390        2.62670        2.19030
H          6.42320        2.93160        3.41530
H          6.06590        3.11610        1.66000
H          8.58050        0.66510        1.06250
H          8.56290       -0.48190       -1.22720
H          5.13000       -1.36260       -2.59230
H          7.25290        0.59600       -3.28440
H          5.47470        0.84420       -3.07710
H          6.06750       -0.23320       -4.38510
H          8.13650       -2.03180       -2.68230
H          6.87010       -2.57640       -3.80940
H          6.85150       -3.13740       -2.10390
