54

P          0.97490        0.06660       -0.07030
O          0.47680        1.24070        1.06190
C         -0.89680        1.48170        0.87890
C         -1.30180        2.69340        1.70460
O          0.87470       -0.04540       -1.77010
C          1.36850        1.14560       -2.33160
C          0.98200        1.19230       -3.80670
C         -0.06070       -1.41830        0.11110
C         -0.83370       -1.98360       -0.92480
C         -1.42000       -3.24340       -0.75860
C         -1.25190       -3.94940        0.43460
C         -0.50900       -3.39110        1.47480
C          0.08440       -2.13520        1.31380
Ag         3.43490        0.06660       -0.07030
Br         3.44260       -1.80270       -1.71940
C          3.35510        1.72390        1.18310
C          3.64850        1.65780        2.47880
N          5.53490        0.06660       -0.07030
C          6.38660       -0.68130       -0.80930
N          7.68580       -0.34360       -0.58890
C          8.86910       -0.86510       -1.24570
C          8.76080       -1.79340       -2.30150
C          9.90520       -2.24450       -2.97450
C         11.16870       -1.78430       -2.59770
C         11.29110       -0.87510       -1.54980
C         10.15510       -0.41850       -0.87920
C          7.64260        0.62170        0.34840
C          6.32370        0.88140        0.65770
H         -1.48450        0.61210        1.24550
H         -1.14390        1.70500       -0.18530
H         -1.05230        2.52630        2.77410
H         -2.39610        2.85950        1.61340
H         -0.76880        3.59880        1.34400
H          2.47760        1.16050       -2.26110
H          0.93270        2.05210       -1.85100
H          1.36220        0.29200       -4.33510
H          1.41750        2.09560       -4.28440
H         -0.12350        1.23150       -3.91540
H         -0.95550       -1.49550       -1.87990
H         -1.98150       -3.68680       -1.56990
H         -1.68520       -4.93530        0.54750
H         -0.36700       -3.94590        2.39460
H          0.69810       -1.74420        2.11740
H          2.92050        2.63500        0.79790
H          3.91770        0.71090        2.92900
H          3.50180        2.53870        3.09900
H          6.07250       -1.42330       -1.52280
H          7.80710       -2.16510       -2.63760
H          9.81150       -2.95040       -3.78600
H         12.04990       -2.13340       -3.11960
H         12.27270       -0.52030       -1.26160
H         10.30160        0.29970       -0.08200
H          8.48780        1.13470        0.77820
H          5.99580        1.61670        1.36420
