54

P          1.06620       -0.07360       -0.01390
C         -0.00400       -1.51830        0.29960
C          0.74610        0.76370        1.57460
C          0.13020        0.47400       -1.47790
Ag         3.52620       -0.07360       -0.01390
Br         3.52620       -0.96030        2.41960
C          3.52620        0.66240       -2.03400
C          4.04150        1.81240       -2.46090
P          5.98620       -0.07360       -0.01390
C          6.70690        1.54910       -0.53180
C          6.29150        2.63440        0.27150
C          6.66640        3.94740        0.00750
C          7.47010        4.23090       -1.08640
Cl         7.92040        5.89110       -1.42700
C          7.88860        3.19210       -1.91990
C          7.50870        1.86490       -1.66040
C          6.59200       -0.42930        1.66600
C          7.41440       -1.54660        1.86990
C          7.88420       -1.86850        3.15130
C          7.53450       -1.07280        4.24560
Cl         8.10160       -1.47640        5.85840
C          6.72370        0.04440        4.05800
C          6.25800        0.36660        2.78380
C          6.40490       -0.97990       -1.54690
C          5.43270       -1.61990       -2.33150
C          5.80110       -2.32350       -3.48590
C          7.14520       -2.45390       -3.83610
Cl         7.59900       -3.34410       -5.27760
C          8.12310       -1.88640       -3.02650
C          7.75300       -1.17470       -1.87950
H         -1.06900       -1.25670        0.43760
H          0.37130       -2.03710        1.20990
H          0.11050       -2.23180       -0.54570
H         -0.35170        0.83670        1.72640
H          1.16590        1.78870        1.54760
H          1.15130        0.20910        2.43580
H         -0.95710        0.45070       -1.22290
H          0.29750       -0.20080       -2.33860
H          0.37880        1.52230       -1.72790
H          3.03720        0.03050       -2.76930
H          4.52690        2.50840       -1.79720
H          3.96290        2.05830       -3.51770
H          5.62870        2.49290        1.10000
H          6.31030        4.74420        0.65200
H          8.49440        3.41840       -2.78720
H          7.84660        1.15240       -2.37910
H          7.68940       -2.18220        1.03760
H          8.51370       -2.73710        3.29550
H          6.43690        0.66000        4.90410
H          5.61120        1.21790        2.70410
H          4.38470       -1.59620       -2.06630
H          5.03230       -2.81050       -4.08690
H          9.17130       -1.99430       -3.27710
H          8.53390       -0.75300       -1.26210
