121

C          0.90100       -0.64300       -0.00200
N          0.54800        0.03800       -1.23370
C          0.86330        0.10250       -2.75890
C          1.80590       -0.75700       -3.47220
C          2.76710       -1.73430       -2.93040
C          1.92990       -0.77870       -4.87370
C          1.15850       -0.02670       -5.70660
C          1.24660       -0.24830       -7.20020
C          0.31390        0.89450       -5.13950
C          0.15280        1.02190       -3.72880
C         -0.83590        2.16530       -3.46450
C         -0.48210        0.76630       -0.83210
C         -0.76430        0.58710        0.43610
N          0.02180       -0.30760        1.06040
C         -0.27380       -0.65730        2.53310
C          0.40710       -1.65400        3.35970
C          1.72570       -2.29220        3.11970
C         -0.15210       -2.14350        4.57240
C         -1.31560       -1.62650        5.09260
C         -2.02270       -2.20210        6.28640
C         -1.85830       -0.53100        4.49230
C         -1.38150       -0.02870        3.27460
C         -2.17790        1.16820        2.87500
Ag         2.65840       -1.88140       -0.01350
Br         4.06630        0.12430       -0.85200
C          1.48970       -3.54640        0.68260
C          0.16440       -3.58700        0.88570
C          4.41590       -3.11990       -0.02500
N          4.52100       -4.48780       -0.17310
C          3.77370       -5.76220       -0.40360
C          4.13760       -6.65690       -1.58880
C          4.95170       -6.45230       -2.95700
C          4.36130       -7.24310       -4.19190
C          5.08520       -5.04110       -3.50210
C          3.85910       -8.03460       -1.47060
C          3.15190       -8.58160       -0.44880
C          2.72470       -7.80670        0.60090
C          3.08300       -6.43850        0.70460
C          2.96800       -5.85330        2.15100
C          1.65080       -5.97750        3.01890
C          4.09200       -6.47540        2.91940
C          5.91060       -4.87890       -0.04920
C          6.67620       -3.69760       -0.37900
N          5.81980       -2.61790       -0.09250
C          6.47990       -1.32280        0.05210
C          7.46360       -0.84950       -0.94950
C          8.06870       -1.64510       -2.11420
C          7.10680       -1.76320       -3.30660
C          9.56040       -1.41830       -2.51730
C          7.90970        0.48320       -0.84270
C          7.51040        1.33050        0.19140
C          6.69910        0.84220        1.20990
C          6.20410       -0.48170        1.18770
C          5.45810       -0.95490        2.44820
C          6.36370       -0.82420        3.70210
C          4.18820       -0.14690        2.69950
H          2.62570       -1.82500       -1.90700
H          3.80160       -1.38950       -3.18420
H          2.60550       -2.73340       -3.37200
H          2.63960       -1.44420       -5.35210
H          1.81540       -1.17870       -7.42230
H          1.74860        0.59050       -7.72000
H          0.23440       -0.41660       -7.63020
H         -0.27270        1.49510       -5.83410
H         -1.05420        2.80570       -4.35010
H         -0.40720        2.89510       -2.74390
H         -1.84980        1.79570       -3.18840
H         -1.09860        1.42110       -1.34710
H         -1.57280        1.17880        0.70800
H          2.19480       -1.87490        2.23130
H          1.57320       -3.37960        3.08100
H          2.39310       -2.15800        3.98140
H          0.31790       -2.96330        5.11880
H         -1.53490       -3.12720        6.65050
H         -3.05990       -2.47050        5.96950
H         -2.09480       -1.45340        7.10290
H         -2.73660       -0.09100        4.96430
H         -2.82480        1.60630        3.65630
H         -2.90810        0.83160        2.11340
H         -1.45630        1.98530        2.63480
H          1.96030       -4.41710        0.69460
H         -0.48240       -2.73410        0.81630
H         -0.31580       -4.53600        1.09810
H          5.98170       -6.86830       -2.82220
H          3.29940       -6.97140       -4.35750
H          4.42990       -8.34880       -4.14320
H          4.91940       -7.03540       -5.13590
H          4.10110       -4.62440       -3.77320
H          5.74250       -5.04350       -4.41000
H          5.55480       -4.39840       -2.80450
H          4.22300       -8.76240       -2.17850
H          2.99330       -9.65670       -0.46240
H          2.22400       -8.33130        1.39750
H          3.26840       -4.78860        2.12440
H          1.37470       -7.01150        3.31250
H          0.72410       -5.51950        2.63670
H          1.82660       -5.44210        3.97950
H          3.82450       -7.51440        3.18730
H          4.29130       -5.84350        3.80320
H          4.99210       -6.48820        2.27570
H          6.27380       -5.71530       -0.69060
H          6.10160       -5.12990        1.00780
H          6.77840       -3.74950       -1.44310
H          7.66160       -3.68730        0.14280
H          8.31370       -2.62740       -1.73300
H          6.96000       -0.78680       -3.81070
H          6.11470       -2.12880       -2.97000
H          7.49270       -2.50080       -4.04700
H          9.90130       -0.47600       -2.99060
H          9.83590       -2.22030       -3.24680
H         10.19370       -1.56550       -1.61240
H          8.58070        0.90090       -1.57760
H          7.87660        2.37840        0.23660
H          6.46690        1.51100        2.02090
H          5.18450       -2.02660        2.35920
H          6.64390        0.23430        3.89490
H          7.29830       -1.41270        3.59830
H          5.83570       -1.18080        4.61500
H          4.39400        0.92890        2.83900
H          3.70340       -0.49710        3.63190
H          3.49990       -0.26180        1.84770
