41

C          0.90100       -0.64300       -0.00200
N         -0.36840       -1.11430       -0.01370
C         -0.83040       -2.50030        0.07050
C         -0.34530       -3.33440       -1.10260
C         -1.16770       -0.03230       -0.06530
C         -0.37930        1.09120       -0.10660
N          0.91650        0.71300       -0.07400
C          2.02640        1.66790       -0.17580
C          3.41010        1.03010       -0.16690
Ag         2.65840       -1.88140       -0.01350
Br         2.70020       -1.79810       -2.60180
C          2.62380       -1.95060        2.13510
C          1.61770       -1.46170        2.86850
N          4.37500       -3.09110       -0.02470
C          5.43330       -2.14470       -0.45640
C          4.87180       -3.63120        1.26080
C          4.33640       -4.12180       -1.08850
H         -1.94380       -2.52180        0.07700
H         -0.47500       -2.95220        1.02200
H         -0.69780       -2.89210       -2.05860
H         -0.75500       -4.36410       -1.01190
H          0.76010       -3.39510       -1.09670
H         -2.25020       -0.05580       -0.07670
H         -0.72250        2.11530       -0.17210
H          1.96310        2.39510        0.66060
H          1.91750        2.22850       -1.13250
H          3.58580        0.49320        0.78550
H          4.17480        1.83010       -0.27430
H          3.52940        0.34130       -1.02240
H          3.40430       -2.35580        2.74460
H          0.74320       -0.99720        2.44440
H          1.66820       -1.51420        3.95230
H          5.50900       -1.29870        0.26180
H          5.20850       -1.68680       -1.43920
H          6.43270       -2.63580       -0.52940
H          5.23570       -2.84280        1.95380
H          5.75560       -4.29060        1.10920
H          4.08770       -4.26440        1.72920
H          4.35160       -3.72390       -2.11790
H          3.42510       -4.74250       -0.96050
H          5.21880       -4.79820       -1.03280
