49

C          1.02400       -0.65300       -0.05500
N         -0.00470       -0.71870       -0.82330
C         -0.14740       -1.55900       -2.00030
C         -0.09730       -3.04590       -1.65440
C         -1.06410        0.15540       -0.36460
C         -0.54230        0.72560        0.96110
N          0.81020        0.23420        1.01980
C          1.79280        0.66980        1.99110
C          1.37780        0.31080        3.41380
Ag         2.78020       -1.86970       -0.29550
Br         3.71790       -0.17620       -2.01620
C          2.00180       -3.27560        1.13290
C          0.82280       -3.13590        1.75010
N          4.49560       -3.05820       -0.53040
C          5.06910       -3.91310        0.46200
N          4.63420       -4.08720        1.86070
C          4.65920       -5.41270        2.47770
C          4.25690       -2.97400        2.74240
C          6.28660       -4.58180        0.16900
C          6.90560       -4.45920       -1.03970
C          6.33550       -3.64230       -1.99540
C          5.15080       -2.96590       -1.71400
H          0.63090       -1.31000       -2.74980
H         -1.14390       -1.36890       -2.46000
H          0.90380       -3.32490       -1.27730
H         -0.29970       -3.64540       -2.56730
H         -0.86940       -3.29540       -0.89400
H         -2.01230       -0.40210       -0.19680
H         -1.21550        0.95600       -1.11990
H         -1.10510        0.31650        1.82920
H         -0.58500        1.83510        0.95150
H          1.88530        1.77690        1.91670
H          2.78540        0.22450        1.77070
H          0.38330        0.74060        3.65810
H          2.11700        0.72950        4.12940
H          1.34450       -0.79090        3.53290
H          2.47000       -4.21360        1.31850
H          0.18700       -2.27540        1.62590
H          0.46590       -3.91760        2.41300
H          5.21590       -6.16750        1.93110
H          5.07730       -5.33570        3.52170
H          3.62120       -5.79360        2.57750
H          4.27740       -1.99540        2.23170
H          4.95040       -2.94740        3.61040
H          3.26660       -3.14800        3.21900
H          6.78810       -5.19640        0.90690
H          7.83590       -4.96990       -1.23510
H          6.82130       -3.53280       -2.95870
H          4.77680       -2.37370       -2.54050
