72

C          0.90100       -0.64300       -0.00200
N         -0.42910       -0.99000        0.09470
C         -1.15990       -2.24660       -0.23830
C         -0.30550       -3.50730       -0.41690
C         -0.11660       -4.25660        0.90370
C         -1.47260       -4.64280        1.50340
C         -2.27370       -3.37450        1.81860
C         -2.47980       -2.55870        0.53840
C         -1.08620        0.18650        0.19850
C         -0.19230        1.22070        0.14970
N          1.04380        0.71370       -0.01770
C          2.32860        1.41550       -0.22820
C          2.55470        1.62850       -1.73580
C          1.66680        2.73340       -2.30650
C          2.03730        4.05510       -1.63730
C          1.80060        3.97230       -0.12170
C          2.54620        2.76920        0.50850
Ag         2.65840       -1.88140       -0.01350
Br         2.73320       -1.75140       -2.59920
C          2.59640       -1.98940        2.13290
C          1.73580       -1.32400        2.90750
C          4.41590       -3.11990       -0.02500
N          4.52280       -4.22190        0.62570
C          3.45050       -4.87320        1.34140
C          5.77280       -4.88950        0.36330
C          6.43880       -4.02310       -0.71610
N          5.53280       -2.90670       -0.86600
C          5.97890       -1.65470       -1.40410
C          6.82330       -1.63960       -2.52680
C          7.31290       -0.44010       -3.04240
C          6.97710        0.77370       -2.43690
C          6.16000        0.78330       -1.30130
C          5.65380       -0.42150       -0.78810
H         -1.52820       -2.00690       -1.26330
H          0.65660       -3.26360       -0.90910
H         -0.85580       -4.19850       -1.09710
H          0.42570       -3.62170        1.62940
H          0.45980       -5.18420        0.70390
H         -1.32190       -5.23260        2.43160
H         -2.03020       -5.28430        0.78090
H         -1.74510       -2.77140        2.58300
H         -3.26720       -3.67260        2.22710
H         -3.09310       -1.65670        0.73610
H         -3.09740       -3.20670       -0.12530
H         -2.15850        0.31060        0.24670
H         -0.47170        2.25380        0.19410
H          3.10950        0.72160        0.14770
H          2.32320        0.72000       -2.28560
H          3.61680        1.89090       -1.92550
H          0.59230        2.49380       -2.14800
H          1.84230        2.80550       -3.40000
H          1.43100        4.87800       -2.07210
H          3.10950        4.26950       -1.84380
H          0.72000        3.91810        0.05950
H          2.14550        4.91620        0.35190
H          2.33080        2.68380        1.59300
H          3.63060        3.00710        0.40560
H          3.31740       -2.62090        2.63660
H          0.97830       -0.66620        2.51120
H          1.78360       -1.44550        3.98510
H          2.51980       -4.30060        1.26060
H          3.72200       -5.06750        2.39410
H          3.22520       -5.84130        0.83580
H          5.60650       -5.91160       -0.04200
H          6.35920       -4.93660        1.30690
H          6.53280       -4.54900       -1.68450
H          7.43740       -3.68920       -0.34260
H          7.11280       -2.57030       -2.99750
H          7.94960       -0.44670       -3.91350
H          7.36400        1.70330       -2.83410
H          5.92830        1.72470       -0.81700
H          5.04910       -0.39980        0.10740
