45

C          1.02400       -0.65300       -0.05500
N          1.04300        0.62470       -0.11190
C          2.25160        1.41440       -0.25740
C          2.21960        2.24870       -1.53560
C         -0.29030        1.17200        0.03810
C         -1.20720       -0.06550        0.01150
N         -0.27400       -1.15820        0.11490
C         -0.61740       -2.54400        0.35800
C         -1.47470       -3.12020       -0.75960
Ag         2.78020       -1.86970       -0.29550
Br         3.14230       -1.34510        2.12140
C          2.04480       -1.94440       -2.33210
C          1.06460       -1.20500       -2.88620
N          4.49560       -3.05820       -0.53040
C          4.95120       -3.61890       -1.72160
O          4.32640       -3.37710       -2.88600
C          4.44260       -4.05430       -4.08530
C          6.08000       -4.46730       -1.74130
C          6.76790       -4.74830       -0.57650
C          6.34060       -4.17810        0.60390
C          5.21640       -3.34810        0.60740
H          3.14690        0.75500       -0.29600
H          2.35340        2.08760        0.62080
H          2.14480        1.58650       -2.42340
H          3.15420        2.84340       -1.61300
H          1.36180        2.95240       -1.52980
H         -0.57150        1.87670       -0.77280
H         -0.33550        1.68220        1.02500
H         -1.72420       -0.16120       -0.97010
H         -1.94180       -0.03390        0.84210
H         -1.17810       -2.60370        1.31860
H          0.30510       -3.15500        0.45920
H         -2.41060       -2.53560       -0.87900
H         -1.74430       -4.16790       -0.50870
H         -0.90660       -3.11340       -1.71220
H          2.39490       -2.61140       -3.06770
H          0.49820       -0.43300       -2.39720
H          0.79890       -1.36420       -3.92860
H          3.75800       -3.58740       -4.82340
H          4.12980       -5.11240       -3.95240
H          5.47350       -3.99240       -4.48560
H          6.43220       -4.93290       -2.65250
H          7.62910       -5.40550       -0.59640
H          6.87600       -4.38180        1.52120
H          4.95240       -2.97380        1.56520
