70

P          1.27500        0.00000        0.00000
N          0.23280        1.51470       -0.07730
C          0.32450        2.41500        1.15110
C          1.74620        2.86720        1.49620
C         -0.48850        3.75240        1.03390
C         -1.16740        1.23410       -0.41100
C         -1.52430       -0.19100       -0.07670
C         -3.06310       -0.32430       -0.08350
C         -0.90270       -1.05730       -1.19860
N          0.56110       -0.83470       -1.41120
C          1.26680       -2.09410       -1.81250
C          1.12010       -3.28320       -0.83420
C          0.77780       -2.58890       -3.18190
N          0.50520       -0.37850        1.58340
C          1.10530       -1.41930        2.46900
C          2.52500       -1.04120        2.89660
C          0.31930       -1.65660        3.78090
C         -0.96720       -0.59150        1.34990
Ag         3.73500        0.00030       -0.00050
Br         3.93110       -2.48070        0.54050
C          3.65870        1.95730       -0.71590
C          4.40750        2.89910       -0.11170
N          5.83500        0.00060       -0.00090
C          6.59750        0.72690       -0.89700
O          5.99560        1.46400       -1.86820
C          6.63070        2.15700       -2.87700
C          8.01090        0.64150       -0.85950
C          8.63740       -0.17340        0.07300
C          7.86930       -0.89350        0.96520
C          6.47620       -0.79790        0.90990
H         -0.05950        1.90740        2.05770
H          2.11260        3.54050        0.69830
H          2.41960        2.00910        1.68160
H          1.74800        3.46930        2.43380
H         -0.21260        4.30160        0.11010
H         -0.28850        4.41400        1.90610
H         -1.58680        3.63560        1.07510
H         -1.34590        1.46370       -1.48550
H         -1.87210        1.88120        0.12220
H         -3.48460       -0.00620       -1.06160
H         -3.50900        0.33790        0.69640
H         -3.37980       -1.36200        0.13320
H         -1.40760       -0.82980       -2.16360
H         -1.17980       -2.09520       -0.96390
H          2.34540       -1.85270       -1.92070
H          0.09680       -3.67520       -0.69080
H          1.47950       -3.01520        0.13120
H          1.73460       -4.14190       -1.17470
H         -0.28280       -2.92250       -3.12950
H          1.38680       -3.46920       -3.49410
H          0.88060       -1.79720       -3.94740
H          1.08180       -2.38180        1.96080
H          2.53070       -0.21790        3.63250
H          3.11360       -0.65330        2.06240
H          3.02380       -1.93690        3.33610
H          0.35460       -0.75840        4.43270
H          0.78010       -2.50830        4.33100
H         -0.74050       -1.93270        3.62050
H         -1.50800       -0.00180        2.12610
H         -1.24550       -1.65700        1.49180
H          2.99070        2.23900       -1.51860
H          5.06310        2.63960        0.71740
H          4.36600        3.93890       -0.42480
H          5.87230        2.66170       -3.51140
H          7.21280        1.45780       -3.51560
H          7.30250        2.93170       -2.45030
H          8.63600        1.17880       -1.56080
H          9.71740       -0.24310        0.09400
H          8.34460       -1.52840        1.70150
H          5.93440       -1.35530        1.65180
