41

C          1.02400       -0.65300       -0.05500
N          1.04360        0.62380       -0.09350
C          2.25060        1.41700       -0.23730
C          2.44470        2.34790        0.95730
C         -0.28990        1.17070        0.04280
C         -1.20610       -0.06460       -0.02150
N         -0.27990       -1.15910        0.09930
C         -0.65710       -2.53310        0.37110
C         -0.17650       -3.49430       -0.70140
Ag         2.78020       -1.86970       -0.29550
Br         2.25530       -2.12960       -2.70660
C          3.27830       -1.68600        1.73310
C          2.49080       -1.12260        2.64610
N          4.49560       -3.05820       -0.53040
C          4.37830       -4.37970       -0.83530
F          3.15110       -4.93410       -0.98300
C          5.51790       -5.19180       -0.87650
C          6.77510       -4.61600       -0.66790
C          6.87610       -3.25210       -0.39090
C          5.71040       -2.49280       -0.28940
H          2.17810        2.02790       -1.16400
H          3.14330        0.76010       -0.32270
H          1.59270        3.05690        1.04280
H          3.37190        2.94310        0.82510
H          2.52190        1.76290        1.89710
H         -0.54620        1.89720       -0.75730
H         -0.35810        1.65320        1.04250
H         -1.69540       -0.15770       -1.01700
H         -1.96270       -0.03620        0.79030
H         -1.76390       -2.60760        0.44510
H         -0.22340       -2.83900        1.34750
H         -0.58980       -3.21020       -1.69080
H         -0.50640       -4.52360       -0.44940
H          0.92900       -3.49640       -0.72910
H          4.18300       -2.17100        2.08210
H          1.53830       -0.66420        2.39490
H          2.76290       -1.14350        3.69310
H          5.43070       -6.25480       -1.04920
H          7.66760       -5.22660       -0.71040
H          7.84410       -2.79170       -0.24410
H          5.77240       -1.43560       -0.06660
