58

C          0.90100       -0.64300       -0.00200
N          0.81900        0.49570       -0.75150
C          1.75460        1.08900       -1.72310
C          3.09560        1.40920       -1.09040
C          1.92250        0.17930       -2.94450
C         -0.40120        1.02240       -0.51360
C         -1.07030        0.20170        0.35770
N         -0.26400       -0.84130        0.68230
C         -0.65640       -1.85710        1.66010
C         -0.69080       -3.24900        1.04050
C          0.25020       -1.78020        2.88470
Ag         2.65840       -1.88140       -0.01350
Br         3.64290       -0.50260        1.94550
C          1.84120       -3.02600       -1.63970
C          2.54450       -3.60610       -2.58090
C          4.41590       -3.11990       -0.02500
N          5.61230       -2.66760        0.20150
C          6.02940       -1.28420        0.23520
C          6.61300       -3.69200        0.08450
C          5.81400       -4.96890        0.10190
N          4.48760       -4.58370       -0.33440
C          3.46620       -5.64190       -0.27920
C          3.26420       -6.43080        0.89200
C          2.30860       -7.46970        0.93170
C          1.51740       -7.75420       -0.17930
C          1.76530       -7.09070       -1.36490
C          2.76420       -6.11910       -1.42370
H          1.32440        2.04450       -2.10470
H          3.54510        0.46900       -0.74900
H          2.96350        2.09970       -0.23290
H          3.77110        1.87890       -1.83700
H          2.41150       -0.76880       -2.66830
H          2.55550        0.67370       -3.71150
H          0.93080       -0.03590       -3.40060
H         -0.79520        1.91340       -0.97250
H         -2.07000        0.35860        0.74440
H         -1.69140       -1.64070        2.01930
H          0.31020       -3.54080        0.66540
H         -1.42540       -3.25660        0.20730
H         -1.02500       -3.98490        1.80330
H          1.30270       -1.98600        2.61250
H         -0.07090       -2.51320        3.65350
H          0.18210       -0.76350        3.33150
H          0.78290       -2.89950       -1.84760
H          3.62390       -3.64430       -2.55910
H          2.01020       -4.03350       -3.42930
H          5.22740       -0.60560       -0.06310
H          6.79010       -1.12050       -0.56000
H          6.48690       -1.02900        1.21200
H          7.37520       -3.66970        0.89370
H          7.10530       -3.56540       -0.90600
H          5.74800       -5.28630        1.16710
H          6.28030       -5.78150       -0.49410
H          3.84710       -6.26470        1.78240
H          2.16820       -8.06140        1.82640
H          0.75020       -8.52080       -0.14750
H          1.19910       -7.34590       -2.25610
H          2.95930       -5.79950       -2.41670
