103

P          1.27500        0.00000        0.00000
N          0.29060        1.23870       -0.88630
C          0.61510        2.67480       -0.51510
C         -0.01660        3.70440       -1.47590
C          0.28370        3.11360        0.93270
C         -1.13790        0.97190       -1.03530
C         -1.56910       -0.20280       -0.20590
C         -3.10390       -0.35010       -0.28890
C         -0.88780       -1.46420       -0.79890
N          0.60850       -1.47770       -0.81180
C          1.12350       -2.77280       -0.23620
C          0.81910       -2.97900        1.26170
C          0.60470       -4.04390       -0.92530
N          0.28050        0.38530        1.50330
C          0.64600        0.01890        2.91980
C          2.06830        0.39750        3.25220
C         -0.25330        0.65130        4.01000
C         -1.16280        0.06370        1.27290
Ag         3.73500        0.00030       -0.00050
Br         3.73560       -2.04140        1.59310
C          3.73450        1.69520       -1.32330
C          4.29850        2.83570       -0.92570
P          6.19500        0.00070       -0.00090
N          7.37170        1.22390       -0.75950
C          7.48820        1.38470       -2.29000
C          6.21320        1.78720       -3.02090
C          8.52230        2.47560       -2.73990
C          8.67800        1.15090       -0.14230
C          9.05680       -0.29250        0.09780
C         10.59150       -0.42480        0.10920
C          8.48670       -0.63790        1.46130
N          7.05700       -0.26600        1.61980
C          6.47610       -1.03600        2.76490
C          7.40960       -1.21620        4.00190
C          5.24520       -0.34780        3.36000
N          6.88990       -1.26680       -1.10200
C          6.32350       -2.64740       -0.99460
C          4.85450       -2.66270       -1.42870
C          7.03990       -3.63420       -1.96580
C          8.41160       -1.29250       -0.94570
H          1.68940        2.83010       -0.61910
H         -1.12050        3.75850       -1.39140
H          0.26660        3.48600       -2.52380
H          0.35730        4.72310       -1.22310
H         -0.78920        2.97760        1.17510
H          0.52480        4.18830        1.08000
H          0.92770        2.61030        1.67450
H         -1.36410        0.78990       -2.11230
H         -1.75790        1.84000       -0.72060
H         -3.42340       -0.53890       -1.33570
H         -3.60880        0.57980        0.05750
H         -3.46040       -1.18580        0.34880
H         -1.24960       -1.66380       -1.80970
H         -1.31400       -2.30230       -0.16960
H          2.20870       -2.78840       -0.40380
H         -0.25140       -2.98450        1.54860
H          1.28130       -2.17810        1.78190
H          1.28750       -3.89890        1.66970
H         -0.47550       -4.21510       -0.73800
H          1.13100       -4.92430       -0.48390
H          0.80770       -4.02300       -2.00850
H          0.46470       -1.04410        3.11020
H          2.19000        1.48810        3.39430
H          2.67430        0.12930        2.40070
H          2.39680       -0.14070        4.17050
H         -0.13720        1.75250        4.05460
H          0.03380        0.23050        5.00320
H         -1.32560        0.40110        3.88200
H         -1.75920        0.92500        1.65130
H         -1.47800       -0.82700        1.85940
H          3.18250        1.65090       -2.25720
H          4.82770        2.88780        0.01800
H          4.24450        3.71590       -1.55990
H          7.78320        0.44610       -2.77940
H          5.92830        2.82140       -2.74900
H          5.43920        1.02270       -2.90120
H          6.39220        1.83800       -4.11850
H          8.35550        3.42560       -2.18450
H          8.45290        2.70680       -3.82780
H          9.58090        2.15560       -2.64460
H          8.69820        1.75870        0.79460
H          9.47600        1.65460       -0.69730
H         11.04510        0.28140        0.84090
H         10.99920       -0.16260       -0.89410
H         10.91880       -1.45230        0.35730
H          9.05570       -0.07400        2.23970
H          8.65910       -1.72440        1.63020
H          6.26440       -2.04860        2.36320
H          7.60310       -0.23740        4.49530
H          8.38570       -1.68710        3.78950
H          6.91650       -1.88390        4.73970
H          5.39440        0.40380        4.15250
H          4.65450       -1.15000        3.86350
H          4.72870        0.17410        2.54350
H          6.43300       -2.98280        0.05880
H          4.75320       -2.43790       -2.51570
H          4.27490       -1.87890       -0.93320
H          4.41600       -3.65920       -1.18780
H          6.89720       -3.31640       -3.01770
H          6.58020       -4.64560       -1.84530
H          8.11160       -3.78780       -1.80600
H          8.88290       -1.14850       -1.93260
H          8.77170       -2.27080       -0.58500
