56

C          1.02400       -0.65300       -0.05500
N          1.05460        0.62340        0.03820
C          2.26010        1.41670        0.08400
C         -0.27270        1.16360        0.22580
C         -1.19090       -0.03120       -0.07050
N         -0.28960       -1.14790        0.02530
C         -0.67700       -2.53620        0.04650
Ag         2.78020       -1.86970       -0.29550
Br         2.68960       -1.49440       -2.85650
C          2.85540       -2.18130        1.83050
C          2.06820       -1.56710        2.71740
P          4.78960       -3.26190       -0.57060
N          6.34790       -2.70190       -1.22900
C          6.92450       -1.75230       -0.24780
C          7.33380       -3.63610       -1.75410
O          4.36880       -4.17750       -1.87680
C          3.96120       -5.45180       -1.61420
C          2.84030       -5.89410       -2.34590
C          2.27360       -7.14650       -2.11210
C          2.80930       -7.99380       -1.15050
C          3.94030       -7.61130       -0.44730
C          4.55730       -6.35460       -0.64470
C          5.80110       -6.12380        0.18110
C          6.73870       -7.17870        0.26670
C          7.91720       -7.04920        1.00430
C          8.17920       -5.87870        1.69970
C          7.26120       -4.83540        1.66970
C          6.09000       -4.93940        0.90570
O          5.25590       -3.88290        0.88600
H          3.16510        0.78790       -0.05760
H          2.32910        1.91540        1.07590
H          2.22560        2.19570       -0.70500
H         -0.50490        2.02630       -0.43370
H         -0.35540        1.46120        1.29550
H         -1.54020        0.00410       -1.12820
H         -2.05390       -0.07130        0.62560
H         -1.78570       -2.62240        0.03180
H         -0.30660       -3.00290        0.98360
H         -0.25720       -3.06910       -0.82990
H          3.55380       -2.90530        2.22460
H          1.31680       -0.84630        2.43380
H          2.16280       -1.80710        3.77190
H          6.24240       -0.88490       -0.09460
H          7.91060       -1.35020       -0.56470
H          7.07010       -2.21630        0.75170
H          6.89290       -4.22040       -2.58320
H          7.77510       -4.27530       -0.97120
H          8.16370       -3.03940       -2.20130
H          2.39560       -5.24820       -3.08310
H          1.39920       -7.45940       -2.66770
H          2.35160       -8.95550       -0.95310
H          4.32440       -8.30520        0.29520
H          6.58150       -8.11880       -0.26890
H          8.63400       -7.86340        1.02130
H          9.09740       -5.77620        2.26630
H          7.47760       -3.93090        2.22310
