90

P          0.99510       -0.08540        0.05180
C          0.00700        1.27920       -1.04750
C         -1.55490        1.30100       -1.18670
C          0.32280        2.70890       -0.53330
C          0.43990        1.27090       -2.54800
C          0.63500       -1.79270       -0.89870
C          1.32600       -1.89670       -2.27740
C          1.12290       -3.06720       -0.16210
C         -0.87260       -2.10600       -1.09820
C          0.23000        0.21170        1.82940
C         -1.32360        0.10140        1.82030
C          0.71790       -0.86220        2.80400
C          0.55030        1.55530        2.54020
Ag         3.45510       -0.08540        0.05180
Br         3.45510       -2.18090        1.57400
C          3.45510        1.65410       -1.21180
C          3.49020        2.98750       -1.09130
P          5.91510       -0.08540        0.05180
C          6.81230        1.52700       -0.68040
C          6.22390        2.71290        0.12650
C          8.34160        1.90960       -0.69770
C          6.45020        1.67060       -2.18250
C          6.40920       -0.19260        1.98380
C          6.04550       -1.48890        2.74700
C          7.92480       -0.07030        2.30210
C          5.73280        0.95300        2.78110
C          6.32980       -1.53470       -1.07180
C          7.81100       -2.08640       -1.42230
C          8.56960       -2.53220       -0.15630
C          7.69180       -3.31400       -2.33220
C          8.72870       -1.11010       -2.14620
H         -2.11860        1.53680       -0.29000
H         -2.01190        0.43910       -1.66800
H         -1.84880        2.13640       -1.85020
H         -0.35300        3.02430        0.26850
H          0.13760        3.49100       -1.29710
H          1.33290        2.81040       -0.15150
H         -0.04750        0.46620       -3.11360
H          1.50030        1.26370       -2.74360
H          0.07240        2.16680       -3.08510
H          2.41490       -1.71480       -2.18320
H          0.92250       -1.26270       -3.05850
H          1.18240       -2.91750       -2.70330
H          2.20230       -3.21230       -0.27890
H          0.75350       -3.99690       -0.65090
H          0.76090       -3.15350        0.87180
H         -1.37280       -1.42360       -1.77450
H         -1.41600       -2.23420       -0.14530
H         -1.01960       -3.08120       -1.61350
H         -1.70820       -0.67470        1.15420
H         -1.80190        1.06110        1.59580
H         -1.74240       -0.11040        2.82580
H          0.47810       -1.87470        2.46490
H          0.21530       -0.76210        3.79240
H          1.79510       -0.73180        3.00880
H          0.06330        2.43470        2.11810
H          1.63730        1.74180        2.62690
H          0.11100        1.54610        3.56570
H          3.44320        1.30050       -2.22920
H          3.50780        3.52130       -0.15360
H          3.49940        3.57490       -2.01120
H          6.85750        2.96110        0.99760
H          5.23280        2.49550        0.54210
H          6.20950        3.66140       -0.45430
H          8.89570        1.84490        0.23950
H          8.42910        2.99700       -0.93970
H          8.94450        1.56440       -1.54490
H          5.44790        1.42860       -2.47100
H          7.03850        0.97670       -2.79600
H          6.66490        2.69530       -2.56170
H          6.24480       -2.39890        2.14360
H          5.05870       -1.42370        3.22840
H          6.62060       -1.60680        3.69350
H          8.48530       -1.00500        2.18550
H          8.07840        0.10800        3.39110
H          8.41540        0.77130        1.83920
H          4.64110        0.98230        2.58920
H          6.16800        1.93910        2.60490
H          5.88270        0.81980        3.87710
H          5.86440       -1.29150       -2.06680
H          5.78250       -2.39980       -0.66550
H          7.95980       -3.22930        0.46700
H          8.88010       -1.63710        0.37760
H          9.53840       -3.03300       -0.42200
H          7.11700       -4.13110       -1.84200
H          8.71100       -3.71830       -2.57340
H          7.20990       -3.04130       -3.29330
H          9.03140       -0.37280       -1.43600
H          8.29280       -0.71840       -3.07890
H          9.69410       -1.58490       -2.42640
