35

C         -0.25280       -1.10410        0.05840
N          0.76410       -0.33290        0.69850
C          1.96860       -0.77110        1.51810
C          0.38730        0.99730        0.46280
Cl         1.09890        2.60080        0.90120
C         -0.76230        1.01130       -0.29160
Cl        -1.69690        2.40970       -0.85550
N         -1.14280       -0.24080       -0.56980
C         -2.25270       -0.45610       -1.55120
Ag        -0.57100       -3.38790       -0.00420
Br        -2.83270       -3.11490        1.11370
C          1.34000       -3.78120       -0.89020
C          1.89720       -2.90940       -1.65490
N         -0.82480       -5.48860       -0.03510
C         -0.24840       -6.14090       -1.22940
C         -0.09530       -6.11040        1.10700
C         -2.21520       -5.86780        0.06110
H          2.07620       -1.85380        1.66280
H          2.00200       -0.40870        2.58030
H          2.94650       -0.45840        1.07520
H         -2.90010        0.42010       -1.66890
H         -3.29350       -0.56690       -1.27330
H         -2.12710       -1.29840       -2.22270
H          1.98320       -4.63810       -0.96290
H          1.26640       -2.07110       -1.84390
H          2.97500       -3.03120       -1.94530
H          0.79070       -6.12320       -1.33060
H         -0.71960       -5.69440       -2.11960
H         -0.40210       -7.23240       -1.25550
H          0.98810       -5.93030        1.09460
H         -0.24940       -7.23100        1.14080
H         -0.50810       -5.72670        2.07010
H         -2.73380       -5.41620       -0.79490
H         -2.64400       -5.55490        0.99430
H         -2.37090       -6.95440        0.04450
