80

C          2.34440       -0.01160       -0.05740
N          1.56310        1.10340        0.03800
C          2.02110        2.50010        0.05190
C          2.88890        2.81710       -1.18000
C          2.12720        2.68280       -2.50800
C          3.04010        3.01290       -3.68970
C          0.28120        0.65950        0.00340
C          0.29050       -0.70580       -0.06950
C         -0.90390       -1.44660       -0.06700
C         -2.11830       -0.74770       -0.01810
C         -2.12940        0.65880        0.02680
C         -0.91930        1.38200        0.03960
N          1.57200       -1.14900       -0.10920
C          1.97540       -2.56860       -0.05470
C          2.76930       -2.87850        1.21220
C          3.01130       -4.39140        1.31260
C          3.80750       -4.74910        2.55980
Ag         4.47690        0.05800        0.00140
Br         4.46230        1.22720        2.31250
C          4.48900       -0.91250       -1.91700
C          3.46410       -1.36400       -2.64510
P          6.93400        0.32030        0.10300
C          7.75710        1.41820       -1.10030
C          7.24710        2.73280       -1.11370
C          7.81600        3.72760       -1.89900
C          8.88420        3.41880       -2.73450
C          9.35880        2.10500       -2.79980
C          8.79830        1.10070       -1.99620
C          7.44950        1.17670        1.68720
C          7.22610        0.50830        2.92040
C          7.52620        1.11690        4.15350
C          8.09490        2.38880        4.18390
C          8.39360        3.03630        2.99280
C          8.09470        2.43860        1.76550
C          7.63710       -1.32130       -0.27440
C          9.03030       -1.49820       -0.20820
C          9.58860       -2.77170       -0.31900
C          8.75740       -3.87840       -0.46590
C          7.37680       -3.69640       -0.48820
O          6.63730       -4.66440       -0.57200
N          6.84110       -2.43060       -0.39230
H          2.61160        2.68500        0.96380
H          1.16390        3.20480        0.07620
H          3.77000        2.14030       -1.19050
H          3.25900        3.86180       -1.08810
H          1.26120        3.38030       -2.51770
H          1.74920        1.64510       -2.63220
H          3.41920        4.05410       -3.60750
H          2.47850        2.91650       -4.64310
H          3.90400        2.31460       -3.71590
H         -0.93070       -2.52460       -0.10270
H         -3.05160       -1.29820       -0.01750
H         -3.07780        1.18020        0.05860
H         -0.94870        2.46130        0.08550
H          2.55500       -2.88930       -0.92870
H          1.07510       -3.21320       -0.03930
H          2.19430       -2.54370        2.10440
H          3.73720       -2.33230        1.18230
H          3.56570       -4.74570        0.41600
H          2.03400       -4.92210        1.35580
H          4.80060       -4.25370        2.53260
H          3.95500       -5.84950        2.59990
H          3.25740       -4.43030        3.47040
H          5.46520       -0.97200       -2.38760
H          2.43470       -1.27220       -2.35150
H          3.64840       -1.79610       -3.62210
H          6.42490        3.00450       -0.45860
H          7.43450        4.73940       -1.84150
H          9.33430        4.19790       -3.33360
H         10.17640        1.87050       -3.46810
H          9.20700        0.11280       -2.08930
H          6.77280       -0.47510        2.94070
H          7.31000        0.61560        5.08650
H          8.31720        2.87240        5.12810
H          8.85820        4.01290        3.01100
H          8.38380        3.01630        0.92140
H          9.69070       -0.65830       -0.03580
H         10.66210       -2.90150       -0.26420
H          9.19310       -4.87240       -0.52260
H          5.80590       -2.33530       -0.34550
