48

C         -0.21890       -1.34330       -0.11770
N         -1.03250       -0.33910        0.33320
C         -2.38700       -0.42940        0.87080
C         -0.36040        0.81980        0.10070
C         -0.85150        2.21890        0.39810
C          0.86330        0.52230       -0.44260
C          1.96240        1.50630       -0.77250
N          0.94420       -0.81720       -0.59450
C          2.13830       -1.55510       -1.01290
Ag        -0.49020       -3.48260       -0.01010
Br        -0.11070       -3.52680       -2.57170
C         -0.80520       -3.44600        2.11640
C         -0.79810       -2.34790        2.87450
N         -0.41310       -5.58420       -0.08420
C          0.75700       -6.02010       -0.86410
C         -0.45300       -6.27020        1.20850
C         -1.60470       -6.04640       -0.77990
C         -1.70500       -7.34030       -1.37680
C         -2.86660       -7.74470       -2.03650
C         -3.96260       -6.89140       -2.10590
C         -3.90130       -5.63390       -1.50540
C         -2.73600       -5.21150       -0.84860
H         -2.72690       -1.48250        0.92220
H         -3.08020        0.13390        0.20880
H         -2.42290        0.03280        1.88120
H         -1.87470        2.23040        0.82030
H         -0.85690        2.81360       -0.54140
H         -0.16690        2.71180        1.11890
H          1.66120        2.55110       -0.55380
H          2.22990        1.43410       -1.84570
H          2.85680        1.27960       -0.15360
H          2.99040       -0.87390       -1.21390
H          1.97450       -2.12470       -1.93450
H          2.44780       -2.23930       -0.19180
H         -0.95470       -4.33620        2.69430
H         -0.60600       -1.36720        2.48920
H         -0.95470       -2.43120        3.94590
H          1.67470       -5.55710       -0.44840
H          0.69640       -5.80750       -1.94140
H          0.92510       -7.11630       -0.81880
H          0.42570       -5.96520        1.82140
H         -0.37470       -7.37590        1.08540
H         -1.40440       -6.10510        1.75210
H         -0.89870       -8.05650       -1.34720
H         -2.91460       -8.72530       -2.49490
H         -4.86050       -7.21140       -2.61990
H         -4.76590       -4.98170       -1.55310
H         -2.72180       -4.23350       -0.38850
