29

N         -0.65900       -1.22800       -0.05100
C         -1.39300       -0.07940       -0.08520
F         -2.73110       -0.14070       -0.29540
C         -0.75230        1.16330       -0.02340
C          0.63460        1.20810        0.15190
C          1.36220        0.02140        0.21030
C          0.69580       -1.19310        0.05020
Ag        -1.57560       -3.10440       -0.27260
Br        -0.56570       -3.31720       -2.64810
C         -2.41400       -2.92770        1.69940
C         -2.31590       -1.84650        2.47770
N         -2.49230       -4.98070       -0.49410
C         -1.96150       -5.96990       -1.30030
F         -0.75460       -5.84790       -1.87950
C         -2.60230       -7.19410       -1.46620
C         -3.81140       -7.44080       -0.84100
C         -4.35590       -6.45840       -0.01770
C         -3.67900       -5.24610        0.15300
H         -1.31630        2.08020       -0.11790
H          1.14270        2.16020        0.23200
H          2.43560        0.04000        0.36850
H          1.25010       -2.12350        0.09850
H         -2.90580       -3.76810        2.16430
H         -1.81200       -0.94610        2.18120
H         -2.74510       -1.86000        3.47400
H         -2.15630       -7.95490       -2.09780
H         -4.32100       -8.37760       -0.98400
H         -5.31480       -6.62500        0.46430
H         -4.17950       -4.50620        0.74080
