52

N         -1.42670       -0.55480       -0.13020
C         -0.94740       -1.82960       -0.08500
C          0.39370       -2.13020        0.13920
C          1.30700       -1.10070        0.27000
C          0.86030        0.20960        0.12960
C         -0.51230        0.46290       -0.07990
Ag        -3.42100       -0.20500       -0.26400
Br        -2.87770        1.98100       -1.49430
C         -3.82460       -2.02910        0.75480
C         -3.18830       -3.04510        1.33050
P         -5.75320        0.06150       -0.40420
O         -6.95870        1.18160       -0.76260
C         -6.46570        1.94810       -1.86790
C         -6.44100        1.23440       -3.26300
C         -7.36520        3.15080       -2.07000
O         -6.04070       -1.01860       -1.79730
C         -5.61480       -2.37310       -1.74540
C         -6.39940       -3.12850       -0.70440
C         -5.97730       -3.13560       -3.04340
O         -6.59720       -0.80710        0.80700
C         -6.14010       -0.56440        2.11040
C         -6.52980        0.83100        2.47240
C         -6.79200       -1.56560        3.08030
H         -1.57730       -2.63890       -0.32770
H          0.71200       -3.16620        0.18870
H          2.35090       -1.33070        0.44620
H          1.58240        1.02000        0.19480
H         -0.78700        1.50290       -0.12490
H         -4.80160       -2.19180        0.98750
H         -2.15930       -3.15030        1.42170
H         -3.73560       -3.84300        1.81690
H         -5.43520        2.29800       -1.67670
H         -7.44400        1.12780       -3.71140
H         -5.89210        0.30030       -3.37580
H         -5.88750        1.84370       -4.00460
H         -8.40630        2.79060       -2.23040
H         -7.04210        3.69520       -2.98530
H         -7.32400        3.82650       -1.20060
H         -4.50990       -2.40560       -1.63770
H         -7.47800       -3.07690       -0.85860
H         -6.37910       -2.76110        0.22320
H         -5.98990       -4.11120       -0.50150
H         -7.08250       -3.15280       -3.19610
H         -5.65070       -4.20070       -2.95060
H         -5.51310       -2.71240       -3.95250
H         -5.05110       -0.69600        2.26630
H         -7.61510        0.96760        2.30210
H         -5.95060        1.56680        1.88400
H         -6.28750        0.99040        3.51730
H         -7.89670       -1.49420        3.03240
H         -6.46960       -1.30520        4.11150
H         -6.48610       -2.62300        2.90050
