34

P          0.98040        0.06050       -0.07720
O         -0.39460        0.64250        0.75160
C         -0.07850        0.56380        2.14090
O          0.62790        0.75140       -1.59830
C          0.71240        2.15870       -1.52740
O          0.65860       -1.59280        0.27590
C         -0.68600       -1.88680       -0.04450
Ag         3.44040        0.06050       -0.07720
Br         3.44040       -1.52570       -2.12460
C          3.44040        1.37730        1.62240
C          2.94400        2.61080        1.57060
N          5.54040        0.06050       -0.07720
C          6.24550        1.01080        0.62330
C          7.64410        1.07160        0.56320
F          8.31310        2.06780        1.19400
C          8.34770        0.11640       -0.16050
C          7.64700       -0.87040       -0.83290
C          6.25450       -0.86450       -0.80330
H         -0.58200        1.37890        2.69570
H          1.00110        0.68490        2.39590
H         -0.40610       -0.41130        2.56200
H         -0.01250        2.57730       -2.26360
H          1.72480        2.49420       -1.80540
H          0.40350        2.58620       -0.55360
H         -0.84140       -2.98480       -0.05460
H         -0.99500       -1.49050       -1.04250
H         -1.39360       -1.51140        0.73910
H          3.84870        1.00480        2.55670
H          2.51940        2.99740        0.65430
H          2.95550        3.23250        2.46120
H          5.75920        1.79510        1.17050
H          9.42990        0.13540       -0.20020
H          8.17820       -1.63990       -1.38320
H          5.79510       -1.66910       -1.32840
