32

N         -0.65900       -1.22800       -0.05100
C          0.09200       -0.91350        1.05060
Cl         0.33600       -2.07850        2.33410
C          0.65940        0.36500        1.18370
C          0.45250        1.31820        0.18970
C         -0.31740        0.99020       -0.92270
C         -0.87260       -0.29270       -1.02370
Ag        -1.57560       -3.10440       -0.27260
Br        -3.57520       -2.28740        0.97090
C          0.11610       -3.86940       -1.35390
C          1.25120       -3.24150       -1.64440
N         -2.49230       -4.98070       -0.49410
C         -1.76290       -6.15370       -0.48560
C         -0.40500       -6.21890        0.18640
C         -2.36700       -7.38950       -0.73640
C         -3.72390       -7.44380       -1.00520
C         -4.47810       -6.27800       -0.92720
C         -3.85450       -5.06190       -0.61240
H          1.25110        0.62720        2.05270
H          0.88280        2.30970        0.28540
H         -0.48400        1.72890       -1.69700
H         -1.47000       -0.54220       -1.88900
H          0.06540       -4.86720       -1.74660
H          1.49470       -2.22360       -1.36110
H          2.00800       -3.78380       -2.23550
H         -0.11390       -5.24510        0.63550
H          0.38870       -6.65080       -0.45200
H         -0.50030       -6.86260        1.09020
H         -1.79670       -8.30950       -0.66750
H         -4.19540       -8.39430       -1.21900
H         -5.54100       -6.31560       -1.12580
H         -4.46760       -4.17770       -0.62790
