38

N         -0.65900       -1.22800       -0.05100
C          0.61550       -0.93280       -0.47800
Cl         1.53100       -2.03990       -1.50710
C          1.15000        0.34630       -0.29120
C          0.39380        1.31940        0.35340
C         -0.90950        1.02740        0.74170
C         -1.43330       -0.24180        0.48750
Ag        -1.57560       -3.10440       -0.27260
Br        -3.71480       -1.95320       -1.17090
C          0.20010       -4.05990        0.47310
C          1.27320       -3.47190        1.02800
N         -2.49230       -4.98070       -0.49410
C         -1.76190       -6.20410       -0.62810
C         -0.29850       -6.44050       -1.00390
C         -2.35550       -7.49520       -0.66040
C         -3.69480       -7.66420       -0.68150
C         -4.33220       -9.02590       -0.80310
C         -4.45730       -6.54830       -0.67480
C         -3.90840       -5.24240       -0.58500
C         -5.08680       -4.29780       -0.57360
H          2.13730        0.59000       -0.66380
H          0.80580        2.30530        0.52390
H         -1.51090        1.77610        1.24040
H         -2.43620       -0.46680        0.81970
H          0.30480       -5.08350        0.64440
H          1.40480       -2.41830        1.16240
H          2.07570       -4.07750        1.44030
H          0.22140       -5.55670       -1.41130
H         -0.22040       -7.13780       -1.86890
H          0.23490       -6.98280       -0.18200
H         -1.75350       -8.39900       -0.74850
H         -3.57820       -9.84070       -0.80920
H         -4.90790       -9.08870       -1.75250
H         -5.02610       -9.19720        0.04480
H         -5.52560       -6.73450       -0.75270
H         -6.09650       -4.75810       -0.49540
H         -5.20240       -3.88280       -1.59850
H         -5.06020       -3.62510        0.30410
