39

N         -0.64240       -1.22680       -0.04430
C         -1.31550       -0.02210        0.09050
Cl        -3.03640        0.25940       -0.12270
C         -0.63820        1.19660        0.18810
C          0.73780        1.22760        0.17510
C          1.43560        0.03670        0.09580
C          0.74360       -1.17330        0.02010
Ag        -1.57560       -3.10440       -0.27260
Br        -3.57970       -2.29380        1.15380
C          0.08800       -3.77720       -1.45670
C          0.44260       -4.86350       -2.17130
N         -2.45300       -4.94720       -0.55130
C         -3.68010       -5.13020       -0.86340
C         -4.53350       -4.03440       -1.48080
C         -3.93310       -2.82990       -1.92010
C         -4.67120       -1.81860       -2.54290
C         -6.02830       -1.99140       -2.78620
C         -6.64800       -3.18020       -2.40600
C         -5.91480       -4.19620       -1.76340
N         -4.02140       -6.50080       -0.97890
C         -2.82850       -7.28580       -0.84000
C         -1.79680       -6.26160       -0.37380
H         -1.18840        2.13280        0.22910
H          1.25730        2.17400        0.22080
H          2.51380        0.04350        0.09490
H          1.35310       -2.05110        0.03450
H          0.88790       -3.08240       -1.55840
H         -0.08880       -5.75750       -2.38710
H          1.43330       -4.89220       -2.62110
H         -2.88380       -2.65230       -1.80360
H         -4.18580       -0.89610       -2.83800
H         -6.59830       -1.20560       -3.27110
H         -7.70490       -3.30670       -2.60640
H         -6.45140       -5.09190       -1.49380
H         -4.89950       -6.88800       -1.35930
H         -2.55740       -7.67730       -1.85050
H         -2.92260       -8.12990       -0.12510
H         -0.84070       -6.49080       -0.78890
H         -1.60120       -6.39200        0.70670
