29

N         -1.39000       -0.11200       -0.05400
C         -0.81120        1.01050        0.44210
C          0.57610        1.10660        0.51720
C          1.37640        0.01240        0.12420
O          2.73210        0.05830        0.18490
C          3.46700        1.17250        0.54290
C          0.74740       -1.14440       -0.34710
C         -0.64530       -1.17820       -0.45320
Ag        -3.47560       -0.20170       -0.28210
Br        -3.69250       -1.20540        2.09570
C         -3.29570        0.63140       -2.25590
C         -2.17070        1.07030       -2.82240
C         -5.61100       -0.29360       -0.51560
N         -6.24990       -0.16000       -1.69450
C         -7.55070       -0.27580       -1.37930
C         -7.65680       -0.47930       -0.02310
O         -6.44590       -0.48480        0.48140
H         -1.42540        1.85410        0.72830
H          1.01380        2.02630        0.87570
H          4.54860        0.93050        0.52890
H          3.19290        1.49960        1.56840
H          3.27800        1.99900       -0.17670
H          1.32820       -2.01020       -0.64690
H         -1.14230       -2.06300       -0.82980
H         -4.18770        0.65050       -2.86950
H         -1.21200        1.02820       -2.32810
H         -2.20730        1.43230       -3.84740
H         -8.36340       -0.21520       -2.09080
H         -8.56870       -0.61220        0.54290
