43

P          0.95420        0.01270       -0.08800
O         -0.27530        0.40410        1.05490
C          0.03660       -0.36830        2.22110
C         -0.61220        0.14340        3.49460
O          0.56640        1.13290       -1.31760
C          0.62440        2.45440       -0.85250
C         -0.04690        3.33210       -1.90360
O          0.47740       -1.64060       -0.23530
C         -0.92650       -1.69990       -0.53470
C         -1.47100       -3.09830       -0.28450
Ag         3.41420        0.01270       -0.08800
Br         3.41420       -0.84840       -2.53070
C          3.41420        0.72750        1.93970
C          3.45420       -0.01990        3.04300
N          5.51420        0.01270       -0.08800
C          6.24030       -0.48920       -1.14890
C          7.63630       -0.55710       -1.13720
C          8.33310       -0.07260       -0.04370
Cl        10.08630       -0.15270       -0.02500
C          7.63060        0.46230        1.03010
C          6.22580        0.49490        0.98140
H          1.10890       -0.36030        2.44400
H         -0.27330       -1.42760        2.09930
H         -0.29020        1.18200        3.71210
H         -0.27610       -0.50420        4.33890
H         -1.71500        0.07730        3.42470
H          1.68250        2.77090       -0.73600
H          0.06020        2.60060        0.09370
H          0.46510        3.21650       -2.88390
H         -0.01220        4.39890       -1.60210
H         -1.11130        3.03040       -2.02810
H         -1.13000       -1.39260       -1.58150
H         -1.57750       -1.08640        0.12630
H         -1.02030       -3.82860       -0.97980
H         -2.57760       -3.09650       -0.43000
H         -1.27460       -3.40790        0.76600
H          3.40180        1.80730        2.04980
H          3.46450       -1.10070        2.99790
H          3.45620        0.47800        4.01040
H          5.80870       -0.90450       -2.02100
H          8.15850       -0.97840       -1.98650
H          8.15940        0.82510        1.89100
H          5.76820        0.90530        1.86500
