47

P          1.04060       -0.03330        0.08510
O         -0.26150       -1.06540       -0.34360
C          0.13800       -1.78670       -1.51930
C          0.00810       -1.04430       -2.87080
O          0.63040        0.32050        1.70420
C          0.63820       -0.81670        2.51780
C         -0.04020       -0.42310        3.82890
O          0.60660        1.17480       -1.07940
C         -0.80220        1.46780       -0.97990
C         -1.32700        2.16710       -2.23560
Ag         3.50060       -0.03330        0.08510
Br         3.10420        2.41510        0.40180
C          3.47840       -2.13300        0.01150
C          3.45090       -2.84080       -1.13040
N          5.60060       -0.03330        0.08510
C          6.33930        1.13310       -0.04790
O          5.71530        2.31620       -0.24130
C          6.28500        3.50870       -0.63940
C          7.76260        1.09120       -0.06520
C          8.41740       -0.11860        0.05930
C          7.68390       -1.28080        0.17420
C          6.29180       -1.22400        0.17070
H         -0.45680       -2.71640       -1.58970
H          1.16950       -2.13060       -1.44600
H         -1.04550       -0.77510       -3.08100
H          0.36620       -1.69800       -3.69490
H          0.65280       -0.14650       -2.95090
H          1.68480       -1.12100        2.73000
H          0.05480       -1.65600        2.08020
H          0.48750        0.44200        4.28730
H         -0.03360       -1.26870        4.54610
H         -1.09470       -0.12200        3.63860
H         -1.02230        2.08100       -0.08450
H         -1.46110        0.60020       -0.95470
H         -0.88530        3.17180       -2.35060
H         -2.43670        2.26500       -2.15930
H         -1.12380        1.56340       -3.14510
H          3.55530       -2.68500        0.94420
H          3.38250       -2.36290       -2.10190
H          3.46490       -3.92990       -1.09880
H          5.49240        4.27260       -0.73480
H          6.76500        3.38150       -1.63790
H          7.02720        3.85440        0.10860
H          8.34550        1.98340       -0.18150
H          9.49870       -0.14710        0.04190
H          8.19490       -2.23200        0.25770
H          5.81530       -2.17460        0.27240
