42

N         -1.35730       -0.07100       -0.00330
C         -0.78810        1.04510        0.52550
C          0.59180        1.25750        0.42030
O          1.16680        2.44050        0.75510
C          0.41920        3.51270        1.20030
C          1.37210        0.20960       -0.02150
C          0.78650       -1.00720       -0.34890
C         -0.59640       -1.08440       -0.46530
Ag        -3.35700       -0.19870       -0.23160
Br        -3.00900        0.85410       -2.57440
C         -3.66500       -1.04550        1.65790
C         -2.60040       -1.24990        2.42160
P         -5.78060       -0.28370       -0.46950
N         -6.51000        0.58450       -1.85970
C         -6.01150        0.14610       -3.17460
C         -7.93970        0.48610       -1.83830
O         -6.35070       -1.90420       -0.85800
C         -6.05710       -2.81580        0.17730
O         -6.64840        0.33820        0.90030
C         -6.32080        1.67370        1.15890
H         -1.39740        1.77340        0.99300
H          1.03790        4.39850        1.39850
H         -0.09510        3.22930        2.13550
H         -0.34940        3.78390        0.44950
H          2.42980        0.34610       -0.08670
H          1.40370       -1.85620       -0.54820
H         -1.05550       -1.96730       -0.89730
H         -4.65210       -1.18340        2.12300
H         -1.60620       -1.04690        2.07420
H         -2.65060       -1.59310        3.43920
H         -5.00790        0.07600       -3.26600
H         -6.43810        0.66020       -4.01810
H         -6.35440       -0.79430       -3.43780
H         -8.31370        0.91080       -0.89680
H         -8.24240       -0.56840       -1.90440
H         -8.39490        1.04260       -2.67430
H         -6.46940       -3.83310        0.01830
H         -6.61910       -2.53330        1.03200
H         -4.97870       -2.87720        0.33230
H         -6.80210        2.05690        2.06430
H         -6.39410        2.37180        0.32010
H         -5.37250        1.72160        1.58860
