51

P          0.94720        0.03320       -0.07820
O         -0.21280       -1.22240       -0.27640
C          0.14190       -1.86340       -1.51040
C         -0.43650       -3.25850       -1.66340
O          0.50820        0.61460        1.46560
C          0.65440       -0.36600        2.45260
C          0.05470        0.20210        3.73600
O          0.45300        0.89550       -1.49030
C         -0.96260        1.12710       -1.41550
C         -1.52620        1.55120       -2.76280
Ag         3.40720        0.03320       -0.07820
Br         3.29790        2.50760       -0.24700
C          3.40980       -2.03170        0.29810
C          3.34850       -2.99920       -0.62210
N          5.50720        0.03320       -0.07820
C          6.34830        1.08740       -0.14520
N          7.65290        0.69560       -0.12850
C          8.83180        1.52830       -0.16810
C          8.74190        2.93750       -0.18370
C          9.89380        3.73300       -0.22460
C         11.15790        3.14170       -0.25150
C         11.27310        1.75150       -0.23550
C         10.12640        0.95320       -0.19270
C          7.60590       -0.64950       -0.05790
C          6.30260       -1.05570       -0.01680
H          1.23300       -1.98220       -1.62890
H         -0.21730       -1.27960       -2.38310
H         -0.07080       -3.93030       -0.86130
H         -0.09660       -3.67080       -2.64320
H         -1.54320       -3.21730       -1.67050
H          1.73080       -0.57980        2.62410
H          0.09210       -1.29270        2.20560
H          0.56910        1.14880        4.01160
H          0.15870       -0.52100        4.57010
H         -1.02530        0.42480        3.58610
H         -1.20990        1.87960       -0.63920
H         -1.56810        0.22000       -1.20950
H         -1.11390        2.53150       -3.06330
H         -2.63590        1.62940       -2.68750
H         -1.29610        0.78490       -3.53550
H          3.52600       -2.32780        1.33460
H          3.26560       -2.79000       -1.68090
H          3.37980       -4.03880       -0.30190
H          6.02180        2.11450       -0.19390
H          7.78380        3.44060       -0.16200
H          9.80570        4.81100       -0.23440
H         12.04910        3.76110       -0.28190
H         12.25250        1.28900       -0.25600
H         10.27010       -0.11680       -0.18160
H          8.46010       -1.31460       -0.03930
H          5.96670       -2.08120        0.02880
