68

N         -1.47960       -0.39120        0.08090
C         -0.97550       -1.62890        0.37060
C          0.36020       -1.78750        0.73280
C          1.21960       -0.67930        0.73390
O          2.53310       -0.78050        1.06950
C          3.13280       -1.91690        1.57820
C          0.69580        0.57450        0.39820
C         -0.67470        0.70220        0.12790
Ag        -3.47560       -0.20170       -0.28210
Br        -3.50490        1.72020        1.45390
C         -3.45130       -1.79720       -1.72310
C         -2.39350       -2.50530       -2.15040
P         -5.95530       -0.06370       -0.72700
C         -6.88670        1.59700       -0.69800
C         -6.29060        2.38030       -1.89470
C         -8.41390        1.56510       -0.85210
C         -6.58310        2.47810        0.53590
C         -6.53600       -1.32670       -2.09200
C         -6.28260       -2.87550       -1.73910
C         -8.05740       -1.40640       -2.34070
C         -5.94240       -0.83050       -3.45130
C         -6.46570       -0.90420        0.88100
C         -5.52240       -1.40300        1.80610
C         -5.90640       -2.23090        2.89810
C         -7.26030       -2.61370        3.12450
N         -7.66680       -3.55040        4.18500
C         -6.73000       -4.19470        5.10500
C         -9.04840       -3.99600        4.39990
C         -8.19640       -2.06220        2.22120
C         -7.80930       -1.24520        1.14460
H         -1.63180       -2.48410        0.41260
H          0.70630       -2.77280        1.01700
H          4.20580       -1.71880        1.77430
H          3.05370       -2.75660        0.85560
H          2.64710       -2.20080        2.53760
H          1.33870        1.44660        0.36080
H         -1.07490        1.67530       -0.12930
H         -4.23540       -2.07850       -2.29270
H         -1.38140       -2.39510       -1.82270
H         -2.53110       -3.25360       -2.92910
H         -6.55480        1.93000       -2.86150
H         -5.17550        2.39390       -1.82810
H         -6.63550        3.43330       -1.93020
H         -8.72290        1.22580       -1.83860
H         -8.82330        2.59620       -0.82490
H         -8.91680        1.01920       -0.04550
H         -5.55490        2.86470        0.51640
H         -6.81750        1.98870        1.49990
H         -7.17120        3.42370        0.48120
H         -6.99110       -3.25540       -0.97930
H         -5.35900       -3.29770       -1.30070
H         -6.42730       -3.47250       -2.67300
H         -8.60990       -1.73460       -1.44510
H         -8.27470       -2.17050       -3.12100
H         -8.48870       -0.50560       -2.76400
H         -4.88990       -0.48320       -3.41350
H         -6.48260        0.06410       -3.80360
H         -6.05240       -1.58550       -4.25420
H         -4.46970       -1.21090        1.66520
H         -5.10590       -2.58730        3.52180
H         -5.67630       -3.92230        4.97200
H         -6.79130       -5.30150        4.99020
H         -7.00460       -3.95200        6.15560
H         -9.80530       -3.56650        3.73310
H         -9.36940       -3.75920        5.43820
H         -9.11410       -5.10090        4.27120
H         -9.24900       -2.27160        2.27970
H         -8.60300       -0.94730        0.49940
