43

N         -1.49010       -0.05040       -0.02000
C         -0.66460       -1.08070       -0.39590
C          0.69750       -1.05430       -0.08360
C          1.25800        0.01150        0.67020
N          2.64740       -0.00630        1.12110
C          3.57420       -1.09940        0.83060
C          3.22520        1.01730        1.99110
C          0.36970        1.06950        1.00320
C         -0.98190        1.00950        0.64720
Ag        -3.47560       -0.20170       -0.28210
Br        -3.67970       -1.34400        2.03350
C         -3.30630        0.74650       -2.20420
C         -2.14940        1.12940       -2.74860
N         -5.49970       -0.23680       -0.53270
C         -6.10230       -1.47090       -0.65790
C         -5.27970       -2.69800       -0.88420
C         -7.49860       -1.57050       -0.68690
C         -8.27210       -0.42850       -0.52940
C         -7.65270        0.81040       -0.40310
C         -6.24800        0.89730       -0.43220
C         -5.61070        2.24780       -0.25550
H         -1.08180       -1.92210       -0.92990
H          1.25620       -1.90600       -0.41980
H          3.17950       -1.90740        0.20350
H          3.89590       -1.57490        1.78330
H          4.47470       -0.70570        0.31360
H          2.55660        1.84070        2.26920
H          4.11540        1.47070        1.50590
H          3.54870        0.54920        2.94710
H          0.66010        1.93960        1.56210
H         -1.65040        1.80590        0.95460
H         -4.22120        0.92960       -2.75820
H         -1.20250        0.99160       -2.24720
H         -2.14450        1.60980       -3.72150
H         -4.19490       -2.46720       -0.86720
H         -5.51790       -3.09790       -1.89690
H         -5.51640       -3.47270       -0.13020
H         -7.98150       -2.53070       -0.82250
H         -9.35250       -0.50140       -0.51220
H         -8.26890        1.69150       -0.27070
H         -6.37880        3.03400       -0.07350
H         -5.06650        2.53800       -1.17380
H         -4.91980        2.24190        0.61160
