41

N         -0.65900       -1.22800       -0.05100
C          0.61950       -1.11660        0.41370
O          1.26830       -2.24300        0.80700
C          2.46680       -2.27210        1.49460
C          1.17900        0.16890        0.58090
C          0.42800        1.29670        0.24830
C         -0.87850        1.14880       -0.20900
C         -1.41800       -0.13130       -0.32210
Ag        -1.57560       -3.10440       -0.27260
Br        -2.63780       -2.86290        2.07720
C         -0.69390       -3.30470       -2.22320
C          0.11810       -2.41710       -2.79770
N         -2.49230       -4.98070       -0.49410
C         -1.80730       -6.04060       -0.00670
C         -2.26890       -7.33890       -0.19100
C         -3.43800       -7.59320       -0.94930
N         -3.89440       -8.95140       -1.21210
C         -3.26480      -10.13770       -0.63570
C         -5.00490       -9.26520       -2.10440
C         -4.10870       -6.44640       -1.46680
C         -3.62390       -5.15330       -1.21850
H          2.68960       -3.31390        1.80250
H          2.40180       -1.65470        2.42000
H          3.28650       -1.89690        0.84920
H          2.17500        0.30850        0.97790
H          0.85190        2.28610        0.36310
H         -1.46940        2.01720       -0.47110
H         -2.42970       -0.25950       -0.68330
H         -0.99740       -4.16910       -2.80530
H          0.39740       -1.49180       -2.31660
H          0.45260       -2.59090       -3.81670
H         -0.89740       -5.86770        0.55370
H         -1.65970       -8.10060        0.25590
H         -2.43740       -9.95160        0.06170
H         -2.85970      -10.77750       -1.44960
H         -4.01600      -10.72120       -0.06500
H         -5.49070       -8.40270       -2.57620
H         -5.78810       -9.81950       -1.54460
H         -4.64000       -9.90960       -2.93340
H         -4.99270       -6.49640       -2.07500
H         -4.12090       -4.29380       -1.64900
