49

N          1.08450       -0.03010       -0.04420
C          0.66430        1.10850       -0.89360
C          0.72870       -1.22800       -0.83560
C          0.47290       -0.04570        1.25560
C          0.25470       -1.28540        1.97570
C         -0.36400       -1.32480        3.22400
C         -0.78160       -0.15640        3.83520
C         -0.57260        1.07540        3.19680
C          0.06000        1.12250        1.96470
Ag         3.18450       -0.03010       -0.04420
Br         3.18450        0.20470        2.53510
C          3.18450       -0.22500       -2.18530
C          3.59990       -1.24790       -2.93160
N          5.28450       -0.03010       -0.04420
C          5.91140       -0.90980        0.78350
C          7.29740       -1.04910        0.74990
C          8.06520       -0.18020       -0.03460
C          7.43900        0.83050       -0.75870
C          8.14250        1.85170       -1.39670
C          7.47650        2.92360       -2.00430
C          6.09100        2.96980       -2.01330
C          5.31730        4.18360       -2.57380
O          4.11900        4.19060       -2.47670
C          5.98720        5.35360       -3.20190
C          5.35350        1.93120       -1.39920
C          6.01680        0.83580       -0.77450
H         -0.20790        1.66140       -0.49430
H          0.31370        0.84700       -1.91970
H          1.51180        1.81480       -1.00600
H         -0.37560       -1.36630       -0.86230
H          1.21030       -2.13430       -0.42050
H          1.03970       -1.21500       -1.89260
H          0.55990       -2.23900        1.57390
H         -0.51570       -2.27620        3.72020
H         -1.27860       -0.18470        4.80120
H         -0.89670        1.98560        3.67900
H          0.20630        2.10950        1.52340
H          2.57010        0.50100       -2.71620
H          3.98910       -2.16350       -2.50590
H          3.37340       -1.20450       -4.00160
H          5.32740       -1.59980        1.37360
H          7.79370       -1.80610        1.33990
H          9.13360       -0.23440       -0.00670
H          9.22970        1.83730       -1.36750
H          8.11260        3.68930       -2.42160
H          7.08120        5.31690       -3.26610
H          5.71500        6.27860       -2.64390
H          5.59770        5.46450       -4.27220
H          4.26770        1.99690       -1.36510
