51

P          1.02450       -0.02930        0.09240
C         -0.09980        1.42350        0.08470
C          0.88100       -0.34250       -1.69320
C          0.12720       -1.06400        1.38150
C         -1.33950       -1.30160        0.94010
C          0.77520       -2.44510        1.51880
C          0.13150       -0.39180        2.76550
Ag         3.48450       -0.02930        0.09240
Br         3.48450       -2.60620       -0.16770
C          3.48450        2.10980        0.30830
C          3.22840        3.01110       -0.64190
P          5.94450       -0.02930        0.09240
C          7.12880       -0.54580        1.40520
C          6.30390       -1.63780       -0.71980
C          6.80280        1.57420       -0.43170
C          6.64040        2.78700        0.50080
C          8.33120        1.35970       -0.59280
C          6.28280        1.88690       -1.85810
H         -1.13750        1.19900       -0.20620
H          0.28870        2.15770       -0.65220
H         -0.06720        1.93830        1.06640
H         -0.19280       -0.37590       -1.98490
H          1.34600       -1.31490       -1.94780
H          1.38570        0.46680       -2.25600
H         -1.37200       -1.75290       -0.07580
H         -1.94460       -0.37680        0.93690
H         -1.86100       -1.99120        1.63700
H          0.77770       -2.97350        0.54200
H          0.21030       -3.07710        2.23930
H          1.80150       -2.34400        1.92230
H         -0.41050        0.57430        2.75450
H          1.16780       -0.21940        3.12090
H         -0.39540       -1.03440        3.50650
H          3.67330        2.45880        1.31860
H          3.01650        2.72290       -1.66190
H          3.25460        4.06490       -0.37730
H          6.77360       -1.48210        1.88610
H          7.13890        0.22950        2.19980
H          8.15950       -0.72460        1.04700
H          6.05370       -2.50360       -0.09050
H          7.38980       -1.71790       -0.92740
H          5.79220       -1.67700       -1.70440
H          7.06400        2.57970        1.50200
H          5.62660        3.14770        0.62810
H          7.18540        3.65950        0.07330
H          8.83430        1.22380        0.38970
H          8.80950        2.24730       -1.05320
H          8.55490        0.47740       -1.24310
H          5.19810        2.01840       -1.87860
H          6.50880        1.03500       -2.54420
H          6.76090        2.79570       -2.27330
