82

P          1.05480       -0.06930       -0.04680
C          0.26710       -1.64320        0.57980
C          0.62200       -2.83660       -0.33290
C          0.26420       -4.03020        0.53730
C          0.84380       -3.67390        1.89530
C          0.92280       -2.14130        1.88230
C          0.61550        1.32210        1.12200
C         -0.87310        1.65580        1.22270
C         -0.88360        2.67340        2.35680
C         -0.05090        1.95230        3.39270
C          1.08770        1.30650        2.58960
C          0.29660       -0.05900       -1.75570
C         -1.24410       -0.19770       -1.76360
C         -1.57110        0.10530       -3.21280
C         -0.68560        1.30610       -3.54400
C          0.43310        1.28500       -2.48340
Ag         3.51480       -0.06930       -0.04680
Br         3.82200       -0.25550        2.42130
C          3.54250        0.21790       -2.09130
C          3.51360       -0.78600       -2.96000
P          5.97480       -0.06930       -0.04680
N          6.92550       -1.28630        0.82680
C          6.51460       -2.57960        0.24680
C          8.38840       -1.17650        0.83930
O          6.26000        1.06740        1.10230
C          6.40520        2.30970        0.58890
C          5.60130        3.31250        1.14560
C          5.62140        4.61070        0.63970
C          6.46380        4.93290       -0.41420
C          7.29880        3.97440       -0.96410
C          7.29770        2.63520       -0.50810
C          8.22970        1.69450       -1.24750
C          9.54120        2.14590       -1.52580
C         10.45640        1.35860       -2.23090
C         10.07790        0.11210       -2.71500
C          8.78760       -0.35160       -2.48970
C          7.86590        0.40820       -1.75180
O          6.66430       -0.14700       -1.54760
H         -0.83490       -1.58260        0.70200
H          1.72110       -2.85820       -0.52950
H          0.08910       -2.85580       -1.30390
H          0.59210       -5.02480        0.16280
H         -0.84260       -4.03770        0.63520
H          1.88220       -4.07410        1.99800
H          0.22700       -4.10220        2.71270
H          2.00150       -1.95850        1.73690
H          0.61730       -1.67890        2.83620
H          1.06080        2.24100        0.67340
H         -1.45110        0.75200        1.52180
H         -1.30060        2.09390        0.30050
H         -1.90060        2.94240        2.71590
H         -0.35860        3.60140        2.03430
H         -0.70230        1.13210        3.77590
H          0.27530        2.55300        4.26820
H          1.24720        0.32000        3.03960
H          2.01930        1.90940        2.65440
H          0.71480       -0.87950       -2.37730
H         -1.73130        0.57710       -1.14390
H         -1.63840       -1.18480       -1.44850
H         -2.64630        0.24490       -3.45920
H         -1.20160       -0.76570       -3.80020
H         -1.24090        2.26570       -3.43510
H         -0.33030        1.21400       -4.59260
H          0.15840        2.06530       -1.73790
H          1.42100        1.56600       -2.88280
H          3.60680        1.23980       -2.45200
H          3.46470       -1.81000       -2.61460
H          3.53930       -0.57120       -4.02480
H          5.40450       -2.69440        0.28260
H          6.94240       -3.43820        0.80260
H          6.81760       -2.66250       -0.82350
H          8.70590       -0.19550        1.24490
H          8.82950       -1.38300       -0.15020
H          8.78590       -1.97110        1.51010
H          4.92540        3.07080        1.95830
H          4.96560        5.36350        1.05960
H          6.46810        5.94170       -0.81310
H          7.93080        4.27040       -1.80150
H          9.87780        3.11220       -1.17430
H         11.46250        1.71800       -2.40580
H         10.78470       -0.50020       -3.26170
H          8.50330       -1.32880       -2.86270
