100

P          0.97760       -0.04670        0.08550
C         -0.14290       -0.86110        1.53640
C         -0.12590       -2.40580        1.78900
C          1.24930       -2.91930        2.13240
C          1.60560       -2.37670        3.52340
C          1.38630       -0.83850        3.64450
C          0.07830       -0.34400        3.01770
C          0.61760        1.73760        0.57260
C         -0.91810        1.99760        0.59380
C         -1.24510        3.31430        1.28470
C         -0.60860        4.47300        0.53400
C          0.90680        4.25300        0.40020
C          1.24240        2.88440       -0.26520
C          0.20240       -1.11030       -1.40870
C          0.68680       -0.78220       -2.84980
C          1.91300       -1.63410       -3.30780
C          1.68600       -3.14510       -3.22210
C          1.25600       -3.50670       -1.80520
C          0.00190       -2.69010       -1.49340
Ag         3.43760       -0.04670        0.08550
Br         3.43710        0.97570       -2.19260
C          3.90500       -0.98490        1.85010
C          4.28350       -2.25660        1.74290
C          5.58760       -0.04670        0.08550
N          6.33350       -0.48220       -0.97520
C          5.91160       -1.45520       -1.99760
C          6.25030       -2.87270       -1.45140
C          5.69690       -3.96080       -2.36950
C          6.31600       -3.81960       -3.75990
C          6.09570       -2.40370       -4.32080
C          6.62740       -1.31880       -3.35660
C          7.62790       -0.28090       -0.67380
C          7.70500        0.27890        0.56180
N          6.45190        0.40020        1.07730
C          6.20440        1.05670        2.38230
C          5.39460        2.34640        2.15060
C          4.99870        2.98870        3.48470
C          6.23530        3.29010        4.34330
C          7.06480        2.01890        4.56330
C          7.47490        1.41040        3.20860
H         -1.19850       -0.69210        1.28430
H         -0.57250       -2.99660        1.05300
H         -0.81640       -2.68680        2.61820
H          1.90790       -2.61250        1.30720
H          1.26380       -4.03360        2.16520
H          2.63360       -2.68260        3.81780
H          0.92790       -2.88520        4.24310
H          2.08020       -0.22330        3.11490
H          1.49190       -0.56250        4.71660
H          0.00960        0.75210        3.12300
H         -0.72620       -0.74560        3.67270
H          1.04890        1.84840        1.58620
H         -1.48590        1.27600        1.17710
H         -1.31920        1.97910       -0.44580
H         -0.86450        3.27040        2.33050
H         -2.34860        3.44850        1.32570
H         -0.82250        5.41530        1.08630
H         -1.07090        4.54600       -0.47330
H          1.35620        4.28070        1.41820
H          1.33390        5.09720       -0.18190
H          2.34630        2.79360       -0.29920
H          0.84730        2.87340       -1.30580
H         -0.84670       -0.75010       -1.34740
H          0.83010        0.30390       -2.97830
H         -0.13280       -1.06230       -3.55640
H          2.75970       -1.44840       -2.65250
H          2.17600       -1.38520       -4.35770
H          2.60350       -3.70600       -3.50440
H          0.89030       -3.45410       -3.93800
H          2.05210       -3.31790       -1.05340
H          1.01950       -4.59710       -1.79150
H         -0.59810       -3.21240       -0.78680
H         -0.70330       -2.89380       -2.33270
H          3.98350       -0.52670        2.80670
H          4.21000       -2.72040        0.77280
H          4.62850       -2.83450        2.59080
H          4.82290       -1.38920       -2.12630
H          5.84220       -3.02720       -0.44740
H          7.35200       -2.99930       -1.34480
H          4.59270       -3.86310       -2.41470
H          5.93400       -4.96400       -1.95110
H          5.87040       -4.58180       -4.43730
H          7.40870       -4.02660       -3.68060
H          5.00670       -2.23860       -4.47710
H          6.61310       -2.32360       -5.29740
H          6.45670       -0.31210       -3.78480
H          7.72460       -1.46720       -3.23210
H          8.47860       -0.56850       -1.27370
H          8.62380        0.56090        1.04430
H          5.69940        0.36490        3.04930
H          4.47380        2.12400        1.57210
H          6.01460        3.05780        1.55720
H          4.32950        2.28750        4.02880
H          4.44070        3.92940        3.29110
H          5.91210        3.70320        5.32340
H          6.86620        4.05100        3.83470
H          6.46320        1.27760        5.13620
H          7.96690        2.26080        5.16630
H          8.07000        0.49140        3.40490
H          8.11670        2.13970        2.66620
