102

P          1.07520       -0.05170        0.04100
C          0.24980        1.03210        1.47260
C          0.68630        2.53380        1.54540
C         -0.15710        3.47630        0.70300
C         -1.65120        3.38270        0.98860
C         -2.13350        1.92180        0.96980
C         -1.25360        1.10480        1.91830
C          0.97070        0.66900       -1.82660
C         -0.29780        0.99920       -2.72890
C         -0.82130        2.42250       -2.62120
C          0.31380        3.41160       -2.97910
C          1.66940        3.14530       -2.27010
C          2.04110        1.66960       -2.30990
C          0.23170       -1.76720        0.39320
C         -1.34640       -1.85850        0.35210
C         -1.90520       -1.46030       -0.98650
C         -1.44650       -2.46930       -2.06180
C          0.06380       -2.75770       -2.02330
C          0.63450       -2.91430       -0.58400
Ag         3.53520       -0.05170        0.04100
Br         3.53520       -1.56380       -2.06180
C          3.53520        1.20350        1.78650
C          3.62300        0.74910        3.03420
P          5.99520       -0.05170        0.04100
C          6.76580       -1.85630       -0.23220
C          6.46220       -2.66360       -1.53470
C          8.28450       -2.09590       -0.06330
C          6.08620       -2.68600        0.89090
C          6.33060        0.85750       -1.65530
C          5.79240        2.29210       -1.44810
C          7.82680        1.03010       -2.01040
C          5.68440        0.35680       -2.97120
C          6.59440        0.67070        1.68870
C          8.09360        1.01650        2.15220
C          8.82610        1.98890        1.21400
C          8.01340        1.68140        3.54180
C          9.03690       -0.18680        2.32940
H          0.73250        0.54660        2.34680
H          1.70240        2.70400        1.22630
H          0.59320        2.88730        2.59940
H          0.01100        3.17400       -0.29550
H          0.19290        4.52640        0.81680
H         -2.21470        3.99370        0.24780
H         -1.83460        3.81330        1.99490
H         -2.10820        1.46660       -0.03210
H         -3.19130        1.91540        1.31000
H         -1.69120        0.17890        2.25520
H         -1.30330        1.63580        2.89690
H          1.36700       -0.20700       -2.29830
H         -1.11940        0.28030       -2.79530
H          0.03710        0.91480       -3.78960
H         -1.28830        2.58340       -1.65390
H         -1.66270        2.58590       -3.32610
H         -0.01480        4.46430       -2.83020
H          0.48220        3.28040       -4.07410
H          1.72870        3.49920       -1.23790
H          2.44770        3.73920       -2.80270
H          2.98960        1.44280       -1.80860
H          2.21280        1.46030       -3.39230
H          0.54210       -2.06040        1.41660
H         -1.88300       -1.28900        1.07210
H         -1.70120       -2.88850        0.58330
H         -1.57550       -0.43690       -1.06170
H         -3.01650       -1.41660       -0.99450
H         -1.74950       -2.12170       -3.07900
H         -1.99090       -3.40470       -1.85160
H          0.57780       -1.97730       -2.56130
H          0.26400       -3.67090       -2.62350
H          1.72650       -3.07070       -0.59290
H          0.19650       -3.85900       -0.18570
H          3.62040        2.27080        1.63660
H          3.65070       -0.31080        3.24830
H          3.71470        1.46610        3.84770
H          6.93380       -2.23130       -2.43180
H          5.43910       -2.98200       -1.65460
H          6.88700       -3.68270       -1.48790
H          8.92600       -1.44100       -0.66890
H          8.58540       -3.13050       -0.35730
H          8.55090       -2.20410        0.99030
H          4.97840       -2.65000        0.79210
H          6.34570       -2.28680        1.89420
H          6.39140       -3.75670        0.87520
H          6.30560        2.79150       -0.60210
H          4.72950        2.29380       -1.18120
H          5.92790        2.92210       -2.35550
H          8.29670        1.81700       -1.41920
H          7.96500        1.46910       -3.02310
H          8.38530        0.08530       -2.01480
H          4.60250        0.50000       -2.98980
H          5.97850       -0.64950       -3.28530
H          5.98740        0.99830       -3.82880
H          6.17730        0.00760        2.47240
H          6.07580        1.64630        1.74300
H          8.21250        2.88710        0.99390
H          9.14430        1.45440        0.31430
H          9.79560        2.31360        1.64720
H          7.42880        2.61980        3.49660
H          9.03390        1.94200        3.91650
H          7.54920        0.99570        4.28020
H          9.46870       -0.47380        1.36210
H          8.54530       -1.01290        2.89060
H          9.96360        0.08810        2.87550
