60

P          1.01230        0.04140       -0.09020
O         -0.15170       -0.41940       -1.28130
C          0.31270        0.08410       -2.56760
C         -0.28810       -0.70410       -3.73240
C          0.04320        1.58320       -2.84700
O          0.62710       -0.94610        1.25850
C          0.98670       -2.30080        1.19990
C          2.49980       -2.51980        1.13660
C          0.49720       -2.90410        2.52510
O          0.41290        1.66520        0.06900
C         -1.03300        1.71260        0.06760
C         -1.67900        1.20590        1.37350
C         -1.52040        3.14350       -0.20510
Ag         3.47230        0.04140       -0.09020
Br         3.45560        0.95250        2.22060
C          3.48000       -0.94660       -1.93610
C          4.17560       -0.55910       -2.99930
N          5.57230        0.04140       -0.09020
C          6.36180        0.94600       -0.77560
N          5.79650        2.07190       -1.49050
C          4.47160        2.58580       -1.21880
C          6.51760        2.74330       -2.57460
C          7.76190        0.78930       -0.72230
C          8.32520       -0.29160       -0.05160
C          7.50510       -1.21830        0.56930
C          6.12640       -1.02440        0.55550
H          1.39320       -0.04110       -2.68830
H         -1.39090       -0.59110       -3.75700
H         -0.00770       -1.77330       -3.67300
H          0.11760       -0.30950       -4.69630
H         -1.04260        1.80740       -2.83580
H          0.42480        1.87040       -3.85090
H          0.59660        2.24760       -2.15930
H          0.46310       -2.80610        0.36020
H          3.01040       -2.01180        1.98150
H          2.90700       -2.14130        0.19790
H          2.72970       -3.60490        1.17430
H          1.00240       -2.39970        3.38250
H          0.71690       -3.99010        2.58130
H         -0.59600       -2.75050        2.64670
H         -1.52340        1.15260       -0.74210
H         -1.31880        1.77670        2.25190
H         -1.49170        0.12580        1.51790
H         -2.78760        1.30550        1.30580
H         -1.19160        3.84400        0.58750
H         -2.63360        3.16250       -0.26920
H         -1.14270        3.50730       -1.18180
H          2.83380       -1.81470       -2.04210
H          4.81590        0.30210       -2.96970
H          4.09480       -1.12140       -3.92420
H          4.00190        2.10070       -0.35330
H          3.81350        2.46600       -2.10860
H          4.53720        3.67190       -0.97830
H          7.47670        2.26740       -2.83530
H          6.70400        3.80410       -2.30080
H          5.91150        2.71070       -3.50370
H          8.44980        1.49420       -1.16640
H          9.40080       -0.40750       -0.02460
H          7.93500       -2.08390        1.05710
H          5.48330       -1.75600        1.02170
