96

P          0.99550       -0.00250        0.09990
C          0.00910        0.96270       -1.12730
C         -0.52310        2.23990       -0.79890
C         -1.04360        3.05490       -1.81490
C         -1.02930        2.65680       -3.15960
C         -0.49690        1.42370       -3.49800
C          0.01590        0.59570       -2.49560
C          0.56650       -1.71740       -0.46540
C          1.20730       -2.19270       -1.58750
C          1.01820       -3.46100       -2.11780
C          0.07730       -4.29980       -1.54510
C         -0.66020       -3.84810       -0.44740
C         -0.40930       -2.57220        0.11010
C          0.25000        0.25980        1.72480
C         -1.14080        0.11680        1.86830
C         -1.74650        0.26460        3.11630
C         -0.96930        0.57580        4.23250
C          0.41230        0.74920        4.09560
C          1.02280        0.59570        2.84360
Ag         3.45550       -0.00250        0.09990
Br         3.45550       -1.69770        2.05800
C          3.45550        1.40470       -1.52560
C          4.38750        1.56710       -2.45470
P          5.91550       -0.00250        0.09990
C          6.74420        1.76860       -0.15300
C          6.71130        2.84460       -1.35140
C          5.57070        3.95890       -1.40920
C          5.28060        4.57440       -0.05010
C          5.08470        3.45890        0.96800
C          6.38550        2.65360        1.07540
C          6.99630       -0.71130        1.60760
C          6.92330       -0.14960        3.08840
C          5.69550       -0.61540        3.84740
C          5.72450       -2.17510        3.95850
C          6.09840       -2.96090        2.65070
C          7.17480       -2.26250        1.81170
C          6.45140       -0.81730       -1.57790
C          5.51050       -1.52240       -2.39050
C          4.16800       -1.81180       -1.94170
C          5.81070       -2.06140       -3.65060
C          7.07640       -2.02250       -4.15980
C          7.34100       -2.60900       -5.52220
C          8.08100       -1.49340       -3.36160
C          7.80950       -0.91850       -2.08530
C          9.04160       -0.53880       -1.31920
H         -0.46430        2.58000        0.24840
H         -1.42000        4.04280       -1.57000
H         -1.40960        3.29670       -3.93170
H         -0.46290        1.09920       -4.51860
H          0.42740       -0.30730       -2.88340
H          1.84220       -1.52600       -2.06440
H          1.59060       -3.77220       -2.98360
H         -0.08550       -5.28120       -1.97320
H         -1.42430       -4.49400       -0.03550
H         -1.00970       -2.27950        0.95250
H         -1.76030       -0.12560        1.01440
H         -2.81620        0.13080        3.21700
H         -1.44060        0.68190        5.20280
H          1.01030        0.99780        4.96150
H          2.09050        0.73220        2.75470
H          2.50620        1.86710       -1.76550
H          5.30360        1.05090       -2.47150
H          4.18330        2.20700       -3.30990
H          7.79940        1.52630       -0.03210
H          6.92230        2.40300       -2.34630
H          7.60600        3.48000       -1.17370
H          4.56460        3.68780       -1.71250
H          5.83130        4.75100       -2.13540
H          4.36570        5.21230       -0.10580
H          6.12610        5.22050        0.25920
H          4.22840        2.79500        0.71800
H          4.87110        3.93600        1.94790
H          6.23430        2.05400        1.93810
H          7.21260        3.37280        1.27480
H          8.00100       -0.39930        1.29100
H          7.08360        0.91710        3.23950
H          7.78920       -0.54170        3.66450
H          4.83420       -0.12850        3.36350
H          5.67210       -0.19450        4.87810
H          4.79460       -2.55580        4.42940
H          6.54180       -2.38870        4.69570
H          5.30870       -3.19800        1.93810
H          6.38300       -3.99460        2.94590
H          7.35420       -2.79710        0.86130
H          8.09270       -2.40200        2.42920
H          3.70480       -0.87340       -1.78010
H          4.16580       -2.42540       -1.01970
H          3.59580       -2.36140       -2.72030
H          5.04290       -2.54450       -4.25170
H          6.40910       -2.99720       -5.99860
H          8.05050       -3.45420       -5.44640
H          7.74900       -1.82970       -6.19970
H          9.08870       -1.54550       -3.75040
H          9.96990       -0.82100       -1.86280
H          9.07820       -1.14220       -0.39220
H          9.14120        0.53290       -1.14920
