67

P          1.06590        0.05500       -0.05130
C          0.04350       -0.08440        1.43950
C         -1.33730        0.15970        1.43610
C         -2.05060        0.16880        2.64330
C         -1.39170       -0.06660        3.85970
C         -2.13660       -0.03380        5.16480
C         -0.02080       -0.32300        3.85900
C          0.69420       -0.32020        2.65940
C          0.51560        1.74360       -0.41490
C          0.86590        2.77620        0.47320
C          0.39320        4.07590        0.27890
C         -0.44840        4.36660       -0.80150
C         -1.00260        5.75600       -0.98000
C         -0.78460        3.34450       -1.70660
C         -0.30650        2.03700       -1.51350
C          0.61030       -1.57720       -0.76210
C         -0.32500       -2.46840       -0.17820
C         -0.66900       -3.66720       -0.80380
C         -0.08220       -4.02620       -2.02030
C         -0.40900       -5.34680       -2.65870
C          0.82350       -3.14540       -2.62670
C          1.15850       -1.93020       -2.00790
Au         3.52590        0.05500       -0.05130
Br         3.52590       -2.22460        1.17830
C          3.52590        1.94720       -1.07200
C          4.46470        2.88090       -1.24990
C          5.67590        0.05500       -0.05130
N          6.45260        0.57740       -0.96880
C          6.10870        0.96620       -2.33140
C          7.85500        0.43400       -0.66310
C          7.86900       -0.13130        0.72970
N          6.52630       -0.61950        0.89950
C          6.19000       -1.28470        2.13750
H         -1.85340        0.37080        0.51030
H         -3.10830        0.38110        2.62740
H         -3.20830        0.21230        5.01370
H         -1.69480        0.73990        5.83040
H         -2.06520       -1.02110        5.66680
H          0.50720       -0.49120        4.78890
H          1.76440       -0.47710        2.69010
H          1.49600        2.56880        1.32860
H          0.66950        4.84880        0.98580
H         -0.66170        6.43910       -0.17130
H         -2.11240        5.71690       -0.94110
H         -0.68910        6.18400       -1.95430
H         -1.43350        3.55780       -2.54740
H         -0.59610        1.25630       -2.20470
H         -0.82750       -2.27100        0.75120
H         -1.39270       -4.31950       -0.32910
H         -1.13560       -5.92770       -2.04930
H          0.52360       -5.94520       -2.73360
H         -0.83470       -5.20570       -3.67360
H          1.27120       -3.40250       -3.57910
H          1.85170       -1.26430       -2.50590
H          2.58250        2.29730       -1.43180
H          5.45110        2.81920       -0.82140
H          4.20440        3.80200       -1.76840
H          5.05370        0.76210       -2.58640
H          6.67870        0.33180       -3.04050
H          6.44400        2.00220       -2.55920
H          8.42490        1.38730       -0.73300
H          8.27870       -0.31410       -1.36820
H          8.01710        0.68330        1.47540
H          8.65340       -0.90960        0.84710
H          7.06460       -1.29820        2.82410
H          6.00890       -2.36010        1.93730
H          5.36370       -0.76500        2.66130
