102

P          0.98700        0.05020       -0.08550
C          0.11570        0.62190        1.45210
C         -0.18320       -0.27500        2.50840
C         -0.63670        0.16470        3.74860
C         -0.79970        1.52460        3.98570
F         -1.21520        1.94550        5.20620
C         -0.49020        2.44040        2.98440
C         -0.02520        2.00160        1.73460
C          0.43280        1.35050       -1.20820
C          1.30940        2.07020       -2.02570
C          0.81800        3.10970       -2.82910
C         -0.54620        3.42780       -2.81820
F         -1.01980        4.44150       -3.58230
C         -1.42410        2.70380       -2.01420
C         -0.93910        1.67100       -1.21980
C          0.17350       -1.58580       -0.21170
C         -1.02820       -1.75180       -0.92720
C         -1.76760       -2.94130       -0.81060
C         -1.31140       -3.98010        0.00610
F         -2.04490       -5.11080        0.15760
C         -0.11450       -3.83580        0.69880
C          0.60600       -2.64950        0.59060
Au         3.44700        0.05020       -0.08550
Br         3.44700       -0.98580       -2.45930
C          3.44700        0.91010        1.88500
C          3.94770        1.52740        2.96000
P          5.90700        0.05020       -0.08550
C          6.92310        0.04140       -1.73060
C          7.39310        1.29400       -2.33370
C          7.55880        2.64610       -1.69930
C          7.76450        1.36010       -3.68450
C          7.78260        0.24740       -4.50160
C          8.15090        0.39710       -5.96130
C          7.49260       -0.98060       -3.94610
C          7.05830       -1.11320       -2.59830
C          6.78640       -2.55490       -2.20960
C          6.15730        1.63780        0.95530
C          6.95140        1.73560        2.17020
C          7.57560        0.60090        2.91240
C          7.06660        2.96810        2.87620
C          6.40770        4.11800        2.45660
C          6.41650        5.38500        3.28730
C          5.65690        4.06930        1.29610
C          5.50330        2.87220        0.55130
C          4.54910        2.98210       -0.61140
C          6.32370       -1.70270        0.60950
C          5.32140       -2.66170        1.00540
C          3.86330       -2.45810        1.04310
C          5.61790       -3.95160        1.46610
C          6.93100       -4.36660        1.63110
C          7.19740       -5.75680        2.16360
C          7.95090       -3.47430        1.31800
C          7.69060       -2.16740        0.81380
C          8.91680       -1.35410        0.47490
H         -0.03810       -1.32970        2.45030
H         -0.83670       -0.55480        4.53380
H         -0.58510        3.49920        3.18640
H          0.25820        2.75160        1.01240
H          2.36160        1.83800       -2.04250
H          1.49380        3.67580       -3.45390
H         -2.47960        2.94590       -1.99320
H         -1.63870        1.13780       -0.58730
H         -1.43860       -0.95450       -1.52470
H         -2.71440       -3.04620       -1.32350
H          0.23620       -4.61930        1.36000
H          1.45690       -2.53390        1.21130
H          2.44050        0.71620        2.18870
H          4.88020        1.93550        3.11880
H          3.30860        1.69690        3.82680
H          7.61540        2.63410       -0.61970
H          6.86620        3.40100       -2.12930
H          8.58010        3.01540       -1.93360
H          8.04340        2.31610       -4.12560
H          8.31940        1.46220       -6.24240
H          7.31710        0.02250       -6.59120
H          9.07290       -0.17160       -6.19290
H          7.56750       -1.83400       -4.60460
H          6.94590       -3.25610       -3.05840
H          5.75870       -2.70370       -1.84440
H          7.54990       -2.88510       -1.49940
H          7.33820       -0.36440        2.48400
H          7.13980        0.56090        3.93600
H          8.66990        0.75900        3.01180
H          7.61410        3.00910        3.81270
H          6.97420        5.26540        4.24110
H          5.36800        5.65080        3.56120
H          6.84890        6.23560        2.72260
H          5.13620        4.97550        1.00260
H          4.26350        4.04190       -0.81560
H          3.62060        2.45840       -0.34020
H          4.94180        2.56870       -1.55210
H          3.59550       -1.44260        1.10540
H          3.49140       -2.79500        2.03900
H          3.37700       -3.04460        0.23630
H          4.83960       -4.64520        1.73890
H          6.25040       -6.32370        2.33300
H          7.72250       -5.70280        3.13800
H          7.80290       -6.34070        1.44240
H          8.96730       -3.82300        1.46240
H          9.85230       -1.91410        0.72560
H          8.98120       -0.41220        1.03380
H          8.97200       -1.13290       -0.59910
