73

P          1.05500        0.06750       -0.04920
C          0.21220        0.74060        1.56810
C         -1.32930        0.79470        1.58930
C          0.66450       -0.11760        2.77740
C          0.69250        2.16280        1.94230
C          0.63700        1.30820       -1.55600
C          1.11330        2.79430       -1.53350
C          1.26410        0.84480       -2.90750
C         -0.89160        1.40590       -1.75630
C          0.27520       -1.70420       -0.04000
C          0.11100       -2.79950       -1.22330
C          1.41870       -3.34520       -1.77010
C         -0.65490       -4.02680       -0.66400
C         -0.71410       -2.34080       -2.43910
Au         3.51500        0.06750       -0.04920
Br         3.51500        2.64190        0.23440
C          3.51500       -2.06960       -0.28460
C          4.24900       -2.59740       -1.26940
C          5.66500        0.06750       -0.04920
N          6.42660        0.87620       -0.72060
C          5.97910        1.67170       -1.85920
C          7.14370        2.16830       -2.74230
C          7.82620        0.57230       -0.47760
C          7.80430       -0.32320        0.73970
N          6.45300       -0.83600        0.72920
C          6.02480       -1.74550        1.78990
C          5.15700       -1.03470        2.83660
H         -1.81420       -0.18240        1.43740
H         -1.76140        1.51710        0.89950
H         -1.67510        1.16320        2.58740
H          0.32060       -1.15950        2.68950
H          0.23200        0.27750        3.72440
H          1.76640       -0.09870        2.89350
H          0.36310        2.93010        1.24060
H          1.78280        2.18890        2.10490
H          0.26860        2.49840        2.91410
H          2.17310        2.90010       -1.81950
H          0.86390        3.38190       -0.65020
H          0.64810        3.37430       -2.36230
H          2.37070        0.82920       -2.85610
H          0.98230        1.55160       -3.72850
H          0.97500       -0.10270       -3.31310
H         -1.34960        2.04040       -0.98730
H         -1.37910        0.41550       -1.80250
H         -1.14390        1.95100       -2.69450
H         -0.78340       -1.52040        0.20000
H          0.71920       -2.23170        0.82620
H          1.95620       -3.88600       -0.96600
H          1.96850       -2.51080       -2.24600
H          1.27220       -4.11070       -2.56040
H         -0.13180       -4.47160        0.20820
H         -0.73560       -4.82550       -1.44020
H         -1.68900       -3.75430       -0.36740
H         -0.21540       -1.58480       -3.00500
H         -1.72090       -1.97930       -2.16760
H         -0.81960       -3.17260       -3.17480
H          3.05730       -2.69320        0.47470
H          4.74210       -1.94680       -1.98310
H          4.34160       -3.67330       -1.37440
H          5.37830        2.53990       -1.56770
H          5.37220        1.00570       -2.51610
H          7.78040        2.88380       -2.18230
H          6.75330        2.67200       -3.65010
H          7.77630        1.32370       -3.09790
H          8.47270        1.46410       -0.32160
H          8.19520       -0.02220       -1.34440
H          7.91120        0.30010        1.64060
H          8.59670       -1.10420        0.70540
H          6.93100       -2.09930        2.33360
H          5.52270       -2.63020        1.37710
H          5.68450       -0.14890        3.25990
H          4.95550       -1.73850        3.67250
H          4.19360       -0.71400        2.39900
