96

P          0.93230       -0.05630        0.04740
C          0.14340       -1.65290        0.41170
C         -1.22460       -1.88900        0.62580
C         -1.66350       -3.13050        1.09980
C         -0.73920       -4.15500        1.39430
O         -1.10690       -5.34890        1.92870
C         -2.37740       -5.68280        2.34710
C          0.61720       -3.92620        1.17190
C          1.05270       -2.69360        0.69310
C          0.36520        0.80850        1.52800
C          0.60760        0.28900        2.81450
C          0.24850        1.02290        3.94840
C         -0.39480        2.26990        3.81460
O         -0.73240        3.03700        4.88350
C         -0.47060        2.73410        6.20370
C         -0.68850        2.75010        2.53220
C         -0.31230        2.02660        1.39690
C          0.28570        0.34510       -1.60160
C         -1.10420        0.50100       -1.74530
C         -1.66810        0.97240       -2.92400
C         -0.85230        1.32250       -4.00720
O         -1.36860        1.82890       -5.16060
C         -2.70650        2.09050       -5.38900
C          0.53950        1.17890       -3.87760
C          1.10720        0.70050       -2.68030
Au         3.39230       -0.05630        0.04740
Br         3.39230       -1.76560       -1.89840
C          3.39230        1.36260        1.66270
C          4.19950        2.38220        1.96260
P          5.85230       -0.05630        0.04740
C          6.60010       -1.75110        0.07580
C          6.29070       -2.68280       -0.92580
C          6.49750       -4.06160       -0.73640
C          6.00120       -5.05370       -1.74720
C          7.10190       -4.51760        0.43650
C          7.50480       -3.60470        1.40550
C          7.25490       -2.23930        1.23590
C          6.50400        0.42200       -1.56820
C          5.68740        0.90170       -2.60230
C          6.27010        1.47400       -3.75520
C          5.42790        2.04020       -4.85880
C          7.66650        1.56000       -3.85800
C          8.47750        1.07980       -2.83140
C          7.90100        0.51550       -1.69360
C          6.41110        0.65150        1.61660
C          7.29420        1.74450        1.62630
C          7.64250        2.36140        2.84200
C          8.50210        3.59020        2.85930
C          7.14470        1.84650        4.05030
C          6.31170        0.73340        4.04550
C          5.93430        0.14380        2.83360
H         -1.96900       -1.12650        0.49730
H         -2.71900       -3.27160        1.27850
H         -2.36220       -6.70390        2.77900
H         -3.07950       -5.66550        1.48810
H         -2.71900       -4.97620        3.13460
H          1.34740       -4.69000        1.41400
H          2.11860       -2.53300        0.59220
H          1.12960       -0.65170        2.93710
H          0.49650        0.62210        4.92190
H         -0.84260        3.55730        6.84720
H          0.62440        2.62910        6.36580
H         -0.98940        1.79500        6.48890
H         -1.19030        3.70250        2.41360
H         -0.52510        2.43360        0.41680
H         -1.77820        0.32120       -0.93590
H         -2.74430        1.08720       -2.96500
H         -2.83340        2.51650       -6.40500
H         -3.08920        2.83270       -4.65080
H         -3.30120        1.15430       -5.32070
H          1.18590        1.47210       -4.69380
H          2.18040        0.65930       -2.59040
H          2.57420        1.39580        2.31450
H          5.04360        2.66910        1.37450
H          3.96720        3.00200        2.83030
H          5.82130       -2.35770       -1.82620
H          5.50480       -4.54980       -2.60370
H          5.24360       -5.71290       -1.26590
H          6.83630       -5.67620       -2.12220
H          7.24290       -5.57850        0.60690
H          7.95770       -3.96540        2.32240
H          7.52310       -1.61050        2.06420
H          4.61390        0.88470       -2.49420
H          4.34440        1.91640       -4.65260
H          5.67250        1.53070       -5.81450
H          5.64200        3.12560       -4.96800
H          8.12730        2.01950       -4.72440
H          9.55460        1.17630       -2.90380
H          8.55020        0.20090       -0.88530
H          7.66240        2.14600        0.69460
H          8.81210        3.88910        1.83480
H          9.40920        3.41940        3.47530
H          7.91890        4.42930        3.29790
H          7.39540        2.32120        4.98810
H          5.91780        0.34420        4.97880
H          5.25470       -0.70110        2.84580
