87

P          0.93780        0.05790        0.05270
C         -0.30500       -0.55050        1.29680
C         -1.70180       -0.41370        1.24980
C         -2.48000       -0.77510        2.38430
C         -1.86620       -1.24340        3.56690
C         -2.60600       -1.46720        4.85740
C         -0.50860       -1.44800        3.56830
C          0.23430       -1.12720        2.45930
C          0.64740        1.83750        0.25740
C          0.82700        2.39830        1.53000
C          0.51710        3.74040        1.76830
C          0.02450        4.54900        0.73390
C         -0.34700        5.98130        0.98860
C         -0.12800        4.00370       -0.54760
C          0.18530        2.66110       -0.78680
C          0.32890       -0.70290       -1.48170
C         -0.81660       -0.18880       -2.11800
C         -1.32850       -0.78010       -3.27230
C         -0.72650       -1.92410       -3.80570
C         -1.28300       -2.56050       -5.04960
C          0.39500       -2.47060       -3.15800
C          0.92170       -1.86290       -2.00360
Au         3.39780        0.05790        0.05270
Br         3.39780        1.55290       -2.06230
C          3.39780       -1.18310        1.80840
C          3.60100       -2.49730        1.75680
C          5.54780        0.05790        0.05270
N          6.35570        0.09970       -1.08580
C          5.98550        0.02330       -2.51890
C          6.42050        1.29530       -3.27500
C          6.42970       -1.25860       -3.23950
C          7.63710        0.06080       -0.63630
C          7.63750       -0.00910        0.71620
C          8.84050       -0.01130        1.45170
C         10.05300        0.03180        0.75680
C         10.05960        0.05440       -0.64410
C          8.84990        0.06360       -1.35650
N          6.36790       -0.07590        1.17790
C          6.14570       -0.04540        2.64700
C          6.23690        1.37270        3.15370
C          5.26970        2.30110        2.74430
C          5.33560        3.62650        3.17990
C          6.36970        4.03740        4.02350
C          7.33410        3.11830        4.44510
C          7.26740        1.78550        4.02110
H         -2.18870        0.00200        0.38560
H         -3.55240       -0.63130        2.36770
H         -3.70150       -1.37170        4.73650
H         -2.26840       -0.67630        5.56710
H         -2.35150       -2.44770        5.31730
H          0.00340       -1.83390        4.45840
H          1.23930       -1.30560        2.57940
H          1.17820        1.78630        2.35040
H          0.64390        4.14140        2.76550
H         -0.17390        6.26400        2.04890
H         -1.42460        6.13380        0.76310
H          0.25650        6.65060        0.34130
H         -0.50290        4.61620       -1.35980
H          0.05230        2.28750       -1.78830
H         -1.34030        0.66770       -1.72660
H         -2.20340       -0.34640       -3.74230
H         -2.16040       -1.99760       -5.43860
H         -1.60780       -3.60040       -4.83780
H         -0.50700       -2.57320       -5.84320
H          0.85600       -3.36960       -3.54790
H          1.77910       -2.30460       -1.51290
H          3.17010       -0.69990        2.75420
H          3.77840       -2.99290        0.81060
H          3.54850       -3.08100        2.67180
H          4.92580       -0.16520       -2.59700
H          7.51560        1.38870       -3.36180
H          6.06710        2.20470       -2.74670
H          6.01040        1.29670       -4.30490
H          7.52060       -1.38210       -3.32050
H          6.01070       -1.24260       -4.27410
H          5.99190       -2.14690       -2.73200
H          8.87110       -0.04340        2.52780
H         10.98620        0.04030        1.30500
H         11.00110        0.07340       -1.17590
H          8.90310        0.08150       -2.42890
H          6.89120       -0.70220        3.14310
H          5.23360       -0.47710        3.00410
H          4.46330        1.99250        2.09100
H          4.58390        4.33440        2.85680
H          6.42290        5.06810        4.34890
H          8.13430        3.44070        5.10000
H          8.02430        1.09250        4.36100
