99

P          0.99680       -0.05650       -0.08240
C          0.29450       -1.55600       -1.03670
C         -1.04170       -1.94630       -1.43580
C         -2.28210       -1.12450       -1.34800
C         -1.27140       -3.18430       -2.08990
C         -0.23450       -4.01470       -2.46150
C          1.06970       -3.61950       -2.20500
C          1.31570       -2.42030       -1.52400
C          0.48900       -0.63590        1.68860
C         -0.86180       -0.75810        2.23220
C         -2.15890       -0.48140        1.54540
C         -1.08990       -1.11450        3.58210
C         -0.05310       -1.29530        4.45720
C          1.24240       -1.12950        4.00820
C          1.49730       -0.81630        2.66730
C          0.42390        1.63240       -0.55220
C          0.15730        2.14000       -1.86280
C          0.34990        1.35570       -3.12220
C         -0.25980        3.48340       -2.01480
C         -0.37220        4.33220       -0.91830
C         -0.08950        3.85710        0.35430
C          0.29800        2.52490        0.53470
Au         3.45680       -0.05650       -0.08240
Br         3.45680       -2.44820        0.91170
C          3.45680        1.92880       -0.90760
C          4.46240        2.82300       -1.07290
C          5.60680       -0.05650       -0.08240
N          6.33920        0.17510        1.00810
C          6.02130        0.63990        2.40590
C          6.95400        0.48000        3.51750
C          8.19330       -0.38550        3.55580
C          6.75210        1.15230        4.74720
C          5.64110        1.95000        4.97470
C          5.44800        2.75110        6.22830
C          4.68560        2.03290        4.00720
C          4.85030        1.41510        2.76620
C          3.82330        1.82270        1.84910
C          7.70240        0.17100        0.51330
C          7.69820       -0.85620       -0.57990
N          6.39860       -0.68230       -1.17650
C          6.20310       -0.98860       -2.65650
C          7.01210       -1.90900       -3.41610
C          8.05400       -2.85670       -2.87170
C          6.88280       -2.02270       -4.83540
C          5.94610       -1.26370       -5.54540
C          5.77360       -1.28050       -7.03750
C          5.13970       -0.43190       -4.86300
C          5.24880       -0.30290       -3.47650
C          4.38650        0.65590       -2.98340
H         -2.06020       -0.08910       -1.10620
H         -3.04620       -1.64500       -0.73020
H         -2.73430       -1.06490       -2.36180
H         -2.27720       -3.48930       -2.36660
H         -0.43580       -4.94040       -2.98340
H          1.87840       -4.24320       -2.54950
H          2.35080       -2.16810       -1.39010
H         -2.05880        0.34470        0.84250
H         -2.86930        0.00400        2.25260
H         -2.67480       -1.43720        1.31830
H         -2.09160       -1.21380        3.98550
H         -0.24910       -1.51930        5.50150
H          2.05850       -1.23730        4.70890
H          2.52740       -0.69010        2.45750
H          0.84130        0.39380       -2.94800
H          1.00800        1.95010       -3.80700
H         -0.63030        1.21160       -3.62860
H         -0.46230        3.88800       -2.99980
H         -0.67080        5.36750       -1.05530
H         -0.15770        4.52190        1.20330
H          0.51750        2.19710        1.54210
H          2.54280        2.36880       -1.19970
H          5.48680        2.60100       -0.79160
H          4.25120        3.80870       -1.47910
H          8.27480       -1.12290        2.73920
H          8.14220       -1.02960        4.45910
H          9.09660        0.25430        3.64700
H          7.48600        1.07220        5.54350
H          6.30400        2.63400        6.92940
H          4.50840        2.45750        6.73530
H          5.37940        3.82430        5.94980
H          3.81650        2.65150        4.20900
H          3.21600        2.71220        2.11950
H          3.13240        1.03510        1.57960
H          4.50200        2.18090        1.12470
H          8.55610        0.15420        1.19420
H          7.84810        1.15580        0.00690
H          7.73670       -1.83240       -0.05570
H          8.54440       -0.67510       -1.27230
H          8.11010       -2.93950       -1.78680
H          9.05320       -2.58070       -3.27720
H          7.80100       -3.88410       -3.20720
H          7.50750       -2.69730       -5.40120
H          6.46420       -1.99160       -7.53330
H          5.94720       -0.26260       -7.43150
H          4.71580       -1.56350       -7.27890
H          4.41590        0.16160       -5.41660
H          3.73580        1.22660       -3.68170
H          5.17570        1.35470       -2.64290
H          3.75220        0.07890       -2.29570
