49

P          1.06410        0.03350       -0.06910
C          0.15590        1.50570        0.50420
C         -1.22250        1.75670        0.36380
C         -1.75560        2.99380        0.76510
C         -0.92840        3.98760        1.29840
F         -1.44050        5.18620        1.67160
C          0.43670        3.75800        1.41490
C          0.96670        2.53850        1.01070
C          0.72340        0.03090       -1.83990
C          1.14170        1.10130       -2.64500
C          0.93470        1.06320       -4.02890
C          0.29980       -0.03720       -4.61050
F          0.11290       -0.08200       -5.95240
C         -0.13590       -1.09740       -3.80850
C          0.07470       -1.06420       -2.42720
C          0.40280       -1.22220        1.05530
C         -0.97020       -1.51820        0.97020
C         -1.53810       -2.56310        1.70470
C         -0.72890       -3.31870        2.53640
F         -1.26900       -4.36810        3.22360
C          0.64320       -3.05930        2.62410
C          1.21290       -2.01020        1.88250
Au         3.52410        0.03350       -0.06910
Br         3.52410        0.76310        2.41600
C          3.52410       -0.57210       -2.13200
C          3.37020       -1.84110       -2.50110
N          5.62410        0.03350       -0.06910
C          6.43020       -0.21540       -1.12240
O          7.69820       -0.17550       -0.78050
C          7.75020        0.09550        0.50240
C          6.46120        0.24160        0.96440
H         -1.89120        1.04450       -0.08270
H         -2.81180        3.19540        0.64540
H          1.09350        4.52870        1.80330
H          2.03220        2.42430        1.06950
H          1.64960        1.95200       -2.20560
H          1.27620        1.88200       -4.64950
H         -0.62580       -1.95050       -4.26040
H         -0.25230       -1.90160       -1.82260
H         -1.62160       -0.98790        0.29970
H         -2.59330       -2.78010        1.60560
H          1.26880       -3.68200        3.25100
H          2.27810       -1.84050        1.93600
H          3.76240        0.17050       -2.88690
H          3.21170       -2.61670       -1.76250
H          3.44260       -2.10340       -3.55320
H          6.09550       -0.41790       -2.12790
H          8.65990        0.17120        1.08270
H          6.18200        0.44620        1.98460
