78

P          0.98590       -0.03850        0.09120
C          0.10790       -1.56060       -0.32520
C         -1.27750       -1.73000       -0.21550
C         -1.82880       -3.02180       -0.29160
C         -1.00000       -4.15410       -0.48310
O         -1.46990       -5.42750       -0.46430
C         -2.74400       -5.80860       -0.09640
C          0.37460       -3.96210       -0.64230
C          0.92500       -2.68150       -0.55880
C          0.37750        0.00380        1.79610
C          0.73490       -0.98450        2.71240
C          0.13140       -1.02620        3.97820
C         -0.84480       -0.06110        4.33090
O         -1.50350       -0.08150        5.51910
C         -1.37770       -1.04070        6.50330
C         -1.17790        0.93380        3.40550
C         -0.57170        0.97250        2.14710
C          0.56210        1.14560       -1.20540
C         -0.32600        0.89770       -2.26110
C         -0.67500        1.93300       -3.14200
C         -0.13660        3.22840       -2.97710
O         -0.43570        4.26230       -3.80870
C         -1.18700        4.17880       -4.96240
C          0.73570        3.47020       -1.91900
C          1.07990        2.44180       -1.03810
Au         3.44590       -0.03850        0.09120
Br         3.44590       -0.66380       -2.42220
C          3.44590        0.48060        2.17760
C          3.33950        1.72110        2.64710
P          5.90590       -0.03850        0.09120
C          7.03470       -1.33830       -0.61110
C          6.79490       -2.63650        0.20490
C          6.72530       -1.68460       -2.07010
C          6.33690        1.38590       -0.98710
C          5.75290        2.63780       -0.30160
C          7.86710        1.58590       -1.03990
C          6.39330        0.04190        1.85010
H         -1.91550       -0.88760        0.00450
H         -2.89330       -3.13980       -0.15030
H         -2.81000       -6.91590       -0.10180
H         -3.48630       -5.39620       -0.80740
H         -2.96420       -5.45680        0.93760
H          1.03010       -4.81680       -0.77510
H          2.00140       -2.58310       -0.61010
H          1.45030       -1.75260        2.45170
H          0.41610       -1.80600        4.67190
H         -2.08690       -0.81360        7.32720
H         -0.34610       -1.04510        6.91220
H         -1.63310       -2.04460        6.09750
H         -1.93800        1.66580        3.65390
H         -0.88410        1.72350        1.43270
H         -0.77880       -0.07090       -2.39380
H         -1.37470        1.72690       -3.93690
H         -1.23370        5.18390       -5.44120
H         -2.22270        3.84950       -4.73100
H         -0.70540        3.47520       -5.67180
H          1.14730        4.46460       -1.76710
H          1.73810        2.66850       -0.21240
H          3.58480       -0.33360        2.88140
H          3.24240        2.57020        1.98460
H          3.38030        1.87910        3.72260
H          8.09860       -1.06440       -0.48830
H          5.72330       -2.94550        0.15820
H          7.06080       -2.51630        1.27430
H          7.40490       -3.48130       -0.17890
H          5.70470       -2.10940       -2.15790
H          7.41990       -2.47940       -2.41930
H          6.82850       -0.80940       -2.73480
H          5.92510        1.27950       -2.00900
H          6.18690        2.76560        0.71960
H          4.65200        2.56550       -0.19420
H          5.99800        3.55870       -0.87090
H          8.29510        1.63720       -0.01120
H          8.12760        2.52800       -1.56390
H          8.37150        0.77280       -1.59260
H          6.01790       -0.84890        2.39380
H          5.99130        0.95410        2.32760
H          7.49850        0.08130        1.92720
