102

P          1.06610       -0.05410        0.05210
C         -0.06570        0.38520        1.42520
C         -0.40350       -0.58900        2.38420
C         -0.91340       -0.20860        3.63790
C         -1.05980        1.14250        3.96370
Cl        -1.54360        1.62320        5.58360
C         -0.75360        2.11900        3.01830
C         -0.28480        1.75000        1.75300
C          0.91350        1.44460       -0.95230
C          1.87250        2.46340       -0.84660
C          1.69920        3.66870       -1.53900
C          0.57100        3.86250       -2.34390
Cl         0.33240        5.38000       -3.19020
C         -0.37930        2.84910       -2.46290
C         -0.21230        1.65120       -1.77060
C          0.32670       -1.51270       -0.72810
C         -1.07240       -1.53350       -0.94570
C         -1.66310       -2.63540       -1.58420
C         -0.88270       -3.72530       -1.97120
Cl        -1.63690       -5.10650       -2.74750
C          0.49350       -3.71190       -1.73530
C          1.10240       -2.60470       -1.10560
Au         3.52610       -0.05410        0.05210
Br         3.52610       -0.68940       -2.45880
C          3.52610        0.47340        2.13640
C          2.72240        1.12330        2.95680
P          5.98610       -0.05410        0.05210
C          7.30620        0.18420        1.57750
C          7.53230       -0.89210        2.53840
C          6.75050       -2.10470        2.59670
C          8.40150       -0.85480        3.64510
C          9.05880        0.27310        4.00090
C          9.91230        0.29490        5.24940
C          8.83660        1.39790        3.24080
C          7.99020        1.39010        2.08060
C          7.80280        2.75870        1.59220
C          6.51950       -1.87860       -0.44890
C          7.71110       -2.08950       -1.28200
C          8.65510       -1.03920       -1.83410
C          8.14600       -3.38600       -1.64960
C          7.57970       -4.52890       -1.13290
C          8.11080       -5.89980       -1.45770
C          6.51400       -4.39360       -0.27880
C          5.92570       -3.14710        0.04460
C          4.74700       -3.42140        0.99000
C          6.18880        1.16080       -1.49100
C          6.12910        2.61920       -1.34350
C          5.61000        3.41020       -0.17820
C          6.55250        3.49510       -2.36520
C          6.91790        3.05620       -3.59820
C          7.44080        4.01320       -4.64880
C          6.81710        1.71100       -3.87610
C          6.42900        0.77230       -2.88960
C          6.25450       -0.60310       -3.52140
H         -0.20350       -1.63280        2.20010
H         -1.12880       -0.96230        4.38510
H         -0.80980        3.16920        3.28320
H          0.03920        2.55680        1.11660
H          2.73380        2.33710       -0.20590
H          2.43020        4.45900       -1.43690
H         -1.25960        2.99120       -3.07810
H         -0.98120        0.91070       -1.87790
H         -1.70230       -0.71540       -0.65990
H         -2.73340       -2.63970       -1.75460
H          1.09960       -4.56520       -2.01640
H          2.15860       -2.62410       -0.92380
H          4.46580        0.19180        2.59680
H          1.84330        1.58130        2.64180
H          3.03010        1.27660        3.98900
H          5.76360       -1.75150        2.31260
H          6.49820       -2.39920        3.64380
H          7.31140       -2.94910        2.15010
H          8.51310       -1.71700        4.29720
H          9.97460       -0.71180        5.72240
H          9.47090        0.98070        6.00460
H         10.94440        0.62100        5.00970
H          9.30430        2.30840        3.60700
H          8.39310        3.54520        2.11830
H          6.78230        3.01050        1.93360
H          8.07270        2.81400        0.52760
H          8.42050       -0.01360       -1.54210
H          8.75930       -1.11620       -2.93590
H          9.68080       -1.24460       -1.47990
H          8.99640       -3.50950       -2.30960
H          8.87310       -5.87750       -2.26540
H          7.28070       -6.56610       -1.78070
H          8.57590       -6.34560       -0.55150
H          6.12360       -5.32400        0.15020
H          4.07690       -4.20950        0.59100
H          4.13780       -2.54780        1.26830
H          5.13680       -3.91210        1.92800
H          5.18290        2.76600        0.60050
H          4.79290        4.06640       -0.54060
H          6.35680        4.17010        0.17690
H          6.59450        4.56600       -2.18290
H          7.53880        5.05660       -4.27390
H          6.75280        4.01950       -5.51890
H          8.45090        3.69810       -5.00740
H          7.03620        1.38620       -4.88850
H          5.46460       -0.50160       -4.29900
H          5.93410       -1.36400       -2.81700
H          7.09390       -1.01730       -4.10280
