28

P          0.95790       -0.08920        0.01650
Cl        -0.76360       -0.84160        0.89380
Cl         1.03590        1.34570        1.51280
Cl        -0.12720        0.29150       -1.71120
Au         3.41790       -0.08920        0.01650
Br         3.14470        1.74170       -1.68310
C          3.34410       -1.47200        1.55750
C          4.14640       -1.27660        2.61080
N          5.51790       -0.08920        0.01650
C          6.23560        1.09750       -0.11220
C          5.58300        2.43640       -0.02340
C          7.63070        1.09310       -0.09070
C          8.33000       -0.08500        0.06510
C          7.62420       -1.27890        0.17400
C          6.22770       -1.27910        0.15670
C          5.57400       -2.64390        0.04300
H          2.64140       -2.29850        1.54820
H          4.83790       -0.43720        2.62020
H          4.14050       -1.95590        3.45690
H          4.54260        2.36270        0.34090
H          5.68880        3.01210       -0.96900
H          6.06930        3.02040        0.78930
H          8.18600        2.03070       -0.13320
H          9.40800       -0.08990        0.09160
H          8.18590       -2.19720        0.24740
H          6.33650       -3.44240       -0.08950
H          4.94980       -2.66710       -0.87920
H          5.00640       -3.00260        0.90550
