59

P          0.96230       -0.07310       -0.05690
C          0.17910       -0.94530       -1.45810
C         -1.19710       -1.14330       -1.61450
C         -1.68950       -2.07570       -2.54110
C         -3.16110       -2.34310       -2.61700
C         -0.80130       -2.81010       -3.33890
C          0.57190       -2.60780       -3.21650
C          1.06010       -1.68470       -2.28440
C          0.44930       -1.23800        1.28000
C          0.19820       -0.80270        2.60790
C         -0.23610       -1.71810        3.59940
C         -0.48520       -1.28720        5.02160
C         -0.43950       -3.06230        3.25710
C         -0.21140       -3.49230        1.95390
C          0.22950       -2.59680        0.98350
C          0.16810        1.57940       -0.02500
C         -1.23040        1.70310        0.20710
C         -1.85960        2.96120        0.27360
C         -3.33970        3.10460        0.52750
C         -1.08680        4.11300        0.13200
C          0.30060        4.01120        0.01480
C          0.92700        2.75640       -0.04490
Au         3.42230       -0.07310       -0.05690
Br         3.45940        1.13090       -2.24360
C          3.41210       -1.17590        1.71310
C          3.49780       -2.47740        1.76450
O          5.47230       -0.07310       -0.05690
C          6.26320        0.41890       -0.99700
C          7.57880        0.22630       -0.64410
C          7.56090       -0.40550        0.57330
C          6.23230       -0.57650        0.90030
H         -1.90100       -0.65750       -0.98570
H         -3.72550       -1.68230       -1.92490
H         -3.34930       -3.39410       -2.31060
H         -3.53420       -2.18260       -3.64790
H         -1.17110       -3.55860       -4.03160
H          1.25780       -3.20500       -3.80970
H          2.13530       -1.61480       -2.16020
H          0.33230        0.23610        2.88250
H         -0.29800       -0.20290        5.16020
H          0.19220       -1.84550        5.70450
H         -1.53550       -1.50160        5.31880
H         -0.77760       -3.78140        3.99610
H         -0.37600       -4.52770        1.68530
H          0.39040       -2.98690       -0.00590
H         -1.84740        0.83950        0.37200
H         -3.82160        2.13350        0.76920
H         -3.84140        3.54540       -0.36010
H         -3.50320        3.78460        1.39320
H         -1.55750        5.08960        0.16550
H          0.89060        4.91570       -0.01690
H          2.00380        2.70950       -0.08870
H          3.16250       -0.62770        2.64920
H          3.61940       -3.05520        0.85760
H          3.39130       -2.99880        2.71940
H          5.98040        0.89080       -1.91780
H          8.45040        0.51660       -1.21610
H          8.42080       -0.70730        1.15580
H          5.89820       -1.04280        1.81180
