61

P          0.95530        0.06420       -0.06230
C          0.17840       -1.12470       -1.19410
C         -1.19720       -1.36290       -1.33230
C         -1.63840       -2.34320       -2.24390
C         -0.71000       -3.08090       -2.99900
Cl        -1.25570       -4.33010       -4.10890
C          0.64630       -2.81970       -2.87930
C          1.07200       -1.84520       -1.99720
C          0.61030       -0.88200        1.47050
C         -0.12970       -2.08620        1.57210
C         -0.47120       -2.60860        2.82470
C         -0.08060       -1.95460        3.99530
Cl        -0.55160       -2.58730        5.56270
C          0.67560       -0.78750        3.91370
C          1.01860       -0.26100        2.66700
C          0.11100        1.64100       -0.32490
C         -0.10740        2.46890        0.79100
C         -0.84930        3.64410        0.67820
C         -1.38340        4.01280       -0.55530
Cl        -2.34320        5.47640       -0.68240
C         -1.16590        3.20350       -1.67890
C         -0.42550        2.01700       -1.56490
Au         3.41530        0.06420       -0.06230
Br         3.41530       -2.49280        0.34990
C          3.41530        2.18680       -0.40450
C          3.16900        2.57220       -1.65600
N          5.51530        0.06420       -0.06230
C          6.34500       -1.11350       -0.17030
C          5.98480       -2.52390       -0.58100
C          7.76070       -1.09970       -0.10410
C          8.47470        0.03840        0.00310
C          9.98190        0.02920        0.02820
C          7.77550        1.19500        0.03720
C          6.35180        1.24250        0.00450
C          5.98160        2.70860        0.10120
H         -1.91320       -0.80670       -0.74670
H         -2.69320       -2.54430       -2.35100
H          1.36900       -3.37800       -3.46010
H          2.13690       -1.65140       -1.93240
H         -0.49240       -2.62620        0.71660
H         -1.06640       -3.51110        2.88710
H          0.97810       -0.26980        4.81640
H          1.58290        0.66080        2.64270
H          0.26710        2.20600        1.76640
H         -1.02090        4.25580        1.55680
H         -1.58750        3.48800       -2.63260
H         -0.28910        1.39190       -2.43590
H          3.48170        2.92050        0.38650
H          3.06560        1.81230       -2.42500
H          3.11290        3.62070       -1.92270
H          5.24850       -2.51920       -1.40990
H          5.87510       -3.17830        0.31400
H          6.79260       -3.06630       -1.12330
H          8.35120       -2.00970       -0.18140
H         10.39280       -1.00320       -0.01070
H         10.34980        0.51340        0.95610
H         10.37180        0.58330       -0.85210
H          8.39430        2.08530        0.09470
H          6.82500        3.42800        0.19540
H          5.42980        2.89380        1.03970
H          5.56340        3.06650       -0.85700
