29

P          1.06400        0.04190       -0.06440
Cl        -0.66120        0.91680        0.68250
Cl         1.13810        1.52840       -1.50900
Cl        -0.00550       -1.69370       -0.44880
Au         3.52400        0.04190       -0.06440
Br         3.51280       -1.62330       -1.89690
C          3.56530        1.51930        1.36020
C          3.64770        2.78610        0.92470
P          5.98400        0.04190       -0.06440
O          7.01370       -1.32280       -0.30110
C          8.38400       -1.05500       -0.27810
C          8.64560        0.43060       -0.23210
C         10.16880        0.67480       -0.26100
C          7.85120        1.03430       -1.45040
O          6.50030        0.54020       -1.61320
O          6.65320        0.77340        1.30030
C          8.05950        0.94040        1.12910
H          3.53660        1.30840        2.42600
H          3.67610        2.99010       -0.14590
H          3.67090        3.62490        1.61150
H          8.83040       -1.48600       -1.22600
H          8.84670       -1.59900        0.57700
H         10.61160        0.27340       -1.20010
H         10.66040        0.14500        0.59100
H         10.40080        1.75350       -0.17240
H          8.39610        0.76940       -2.38410
H          7.84670        2.16210       -1.36700
H          8.56440        0.40160        1.96600
H          8.29040        2.01480        1.24220
