78

P          1.03170        0.07220       -0.06150
C          0.20150        1.50280       -1.09000
C         -1.34460        1.53610       -1.16370
C          0.65430        2.87070       -0.51110
C          0.70000        1.54530       -2.55140
C          0.66620       -1.64060       -0.97660
C          1.22000       -1.85570       -2.41020
C          1.27700       -2.86410       -0.23910
C         -0.85600       -1.89360       -1.06460
C          0.14090        0.46620        1.60710
C          0.01120       -0.41580        2.94420
C          1.36210       -0.71030        3.52100
C         -0.76970        0.37260        4.01970
C         -0.72840       -1.76460        2.80670
Au         3.49170        0.07220       -0.06150
Br         3.85070       -0.03610       -2.52050
C          3.64280        0.52890        1.95320
C          4.04080       -0.36640        2.86480
P          5.95170        0.07220       -0.06150
O          7.40410        0.19780       -0.93870
C          7.25050        1.40650       -1.67460
C          8.28570        1.53640       -2.78250
O          6.38930        1.16100        1.20340
C          6.89290        0.52330        2.36000
C          6.71580        1.48590        3.53490
C          6.29820       -1.65740        0.36630
C          5.28310       -2.58860        0.55530
C          5.57370       -3.90120        0.95050
C          6.90370       -4.28900        1.17260
C          7.92770       -3.36560        1.00240
C          7.63570       -2.07510        0.59350
H         -1.84310        1.64510       -0.18950
H         -1.77720        0.69290       -1.70780
H         -1.67140        2.41690       -1.76320
H          0.30580        3.04280        0.52010
H          0.23340        3.70890       -1.11530
H          1.76060        2.97550       -0.55310
H          0.29480        0.73670       -3.16610
H          1.79810        1.60180       -2.60980
H          0.33630        2.45410       -3.08500
H          2.30620       -1.99120       -2.40580
H          0.91340       -1.14930       -3.17470
H          0.87150       -2.83160       -2.81850
H          2.37200       -2.84040       -0.25710
H          0.98900       -3.81510       -0.75220
H          0.99520       -3.03220        0.78180
H         -1.32560       -1.26090       -1.81900
H         -1.35160       -1.78230       -0.07820
H         -1.07220       -2.92280       -1.43410
H         -0.92050        0.59790        1.34640
H          0.53950        1.44490        1.93260
H          1.83250        0.26360        3.76520
H          1.86870       -1.33400        2.76530
H          1.31820       -1.28870        4.46720
H         -0.29230        1.35150        4.24300
H         -0.78880       -0.19770        4.98310
H         -1.82300        0.54250        3.71970
H         -0.19020       -2.46810        2.20450
H         -1.75070       -1.65250        2.40650
H         -0.78160       -2.27100        3.79780
H          3.47140        1.55090        2.26650
H          4.23700       -1.39920        2.60820
H          4.15720       -0.07920        3.90670
H          7.37020        2.28370       -1.00100
H          6.27670        1.47290       -2.20360
H          9.30690        1.51970       -2.36710
H          8.13420        2.52000       -3.31110
H          8.16740        0.73010       -3.53450
H          7.95730        0.22780        2.27240
H          6.36060       -0.40310        2.59310
H          7.55080        2.21600        3.55090
H          6.68890        0.93760        4.50000
H          5.76320        2.05350        3.43560
H          4.26440       -2.28350        0.40330
H          4.77660       -4.61360        1.10230
H          7.13350       -5.29910        1.49320
H          8.96440       -3.65640        1.16220
H          8.46300       -1.37490        0.48840
