68

P          0.95560        0.00030       -0.08960
C         -0.00590        1.52820        0.15860
C         -0.55790        1.89480        1.39880
C         -1.06880        3.19110        1.59420
C         -1.01970        4.14730        0.55550
O         -1.47880        5.41770        0.68370
C         -2.04990        5.96970        1.80830
C         -0.45680        3.78610       -0.66430
C          0.05890        2.50830       -0.85550
C          0.70160       -0.22650       -1.86940
C          1.78750       -0.21220       -2.75030
C          1.58220       -0.36850       -4.12420
C          0.30220       -0.54590       -4.64550
O          0.17460       -0.70000       -5.99100
C         -0.89970       -1.24190       -6.65850
C         -0.80440       -0.54060       -3.76490
C         -0.59530       -0.37890       -2.38610
C          0.35270       -1.35870        0.93420
C         -0.28630       -2.45220        0.33810
C         -0.81010       -3.48220        1.11850
C         -0.70820       -3.43660        2.52270
O         -1.21380       -4.41550        3.31820
C         -1.85650       -5.55360        2.87220
C         -0.06230       -2.34490        3.11930
C          0.46830       -1.31360        2.33320
Au         3.41560        0.00030       -0.08960
Br         3.27840       -2.44480       -0.61630
C          3.26410        2.05110        0.43320
C          4.19410        2.99480        0.26450
N          5.51560        0.00030       -0.08960
C          6.15580       -1.02000       -0.74250
C          7.54300       -1.14850       -0.73840
C          8.32140       -0.25170       -0.00090
O          9.67210       -0.35470        0.08610
C         10.43510       -1.32650       -0.52830
C          7.67530        0.76580        0.69320
C          6.28310        0.88200        0.62960
H         -0.55620        1.21150        2.23270
H         -1.46750        3.45620        2.56450
H         -2.33880        7.01810        1.58620
H         -1.32390        5.97280        2.64860
H         -2.96240        5.40180        2.08520
H         -0.38140        4.51380       -1.46470
H          0.54310        2.31130       -1.80090
H          2.79390       -0.08450       -2.38220
H          2.43910       -0.36070       -4.78940
H         -0.71380       -1.17730       -7.75260
H         -1.84280       -0.70080       -6.43170
H         -0.99990       -2.31700       -6.39160
H         -1.81320       -0.65410       -4.13160
H         -1.45570       -0.36720       -1.72540
H         -0.39290       -2.51430       -0.73400
H         -1.30080       -4.30490        0.61760
H         -2.15840       -6.17380        3.73970
H         -1.17160       -6.15130        2.23190
H         -2.76850       -5.28160        2.29710
H          0.02040       -2.29090        4.19890
H          0.95400       -0.47670        2.81910
H          2.30860        2.41920        0.77890
H          5.13130        2.81700       -0.23130
H          3.98850        4.02790        0.53060
H          5.61730       -1.73220       -1.33290
H          7.99090       -1.95730       -1.29990
H         11.49980       -1.18370       -0.25570
H         10.33260       -1.24850       -1.63160
H         10.11670       -2.33650       -0.18910
H          8.24490        1.44810        1.31270
H          5.85310        1.61310        1.28360
