83

P          0.99600       -0.01260       -0.09910
C          0.38920       -1.16190        1.26550
C         -0.97650       -1.36620        1.68170
C         -2.18890       -0.90470        0.91260
C         -1.25910       -2.01660        2.90020
C         -0.24580       -2.53290        3.70390
C         -0.49010       -3.04060        5.10480
C          1.04760       -2.59590        3.19190
C          1.36820       -1.96680        1.97210
C          2.77920       -2.25630        1.47970
C          0.73270        1.67140        0.80310
C          1.29140        2.85260        0.16520
C          2.31880        2.84680       -0.93770
C          0.93310        4.15130        0.57960
C          0.08130        4.36010        1.64440
C         -0.39560        5.71750        2.05050
C         -0.33170        3.28210        2.37770
C         -0.01150        1.96130        2.02660
C         -0.55890        1.01830        3.04360
C         -0.07830       -0.55470       -1.59400
C         -0.45420        0.40450       -2.61300
C          0.13270        1.76660       -2.76450
C         -1.40720        0.10910       -3.59820
C         -2.02100       -1.11820       -3.67010
C         -3.11300       -1.35780       -4.68020
C         -1.59970       -2.12090       -2.80310
C         -0.63500       -1.88260       -1.78760
C         -0.24120       -3.10740       -1.00380
Au         3.45600       -0.01260       -0.09910
Br         3.45600        1.02360        2.27450
C          3.45600       -0.87290       -2.06950
C          4.10240       -1.22590       -3.20600
N          5.55600       -0.01260       -0.09910
C          6.24070        0.69400        0.87280
C          7.64690        0.85390        0.87810
O          8.30110        1.60210        1.80460
C          7.73280        2.28770        2.85950
C          8.38440        0.25090       -0.12180
C          7.73260       -0.50810       -1.07520
C          6.33990       -0.63140       -1.03540
H         -1.94430       -0.30210        0.03040
H         -2.90890       -0.33910        1.53230
H         -2.72950       -1.81970        0.58020
H         -2.27060       -2.07220        3.27220
H         -1.54080       -2.87530        5.41700
H          0.14630       -2.45330        5.81230
H         -0.22890       -4.11020        5.21860
H          1.80650       -3.10270        3.76190
H          3.28240       -3.03470        2.10210
H          3.46820       -1.42140        1.47150
H          2.72060       -2.70630        0.46620
H          2.65720        1.83860       -1.22590
H          3.22980        3.37200       -0.57280
H          1.95960        3.42390       -1.81790
H          1.31970        5.01540        0.04340
H         -0.01040        6.51590        1.38260
H         -0.09110        5.92610        3.09580
H         -1.51070        5.73500        1.99800
H         -0.95720        3.49380        3.24280
H         -0.82390        1.50180        4.00900
H          0.20860        0.28760        3.35200
H         -1.55820        0.71550        2.74000
H          1.22090        1.62040       -2.82290
H         -0.24540        2.47110       -2.00090
H         -0.08060        2.21660       -3.76200
H         -1.71070        0.86800       -4.31430
H         -3.33050       -0.44210       -5.28080
H         -4.05650       -1.62550       -4.15080
H         -2.83950       -2.17120       -5.37830
H         -2.05280       -3.09590       -2.92000
H         -0.71860       -4.02430       -1.41370
H         -0.55570       -3.10570        0.03770
H          0.85360       -3.25580       -1.08800
H          2.41560       -1.11420       -2.23400
H          5.13120       -1.10810       -3.49880
H          3.50980       -1.68210       -4.00010
H          5.76430        1.22160        1.63520
H          8.51310        2.85170        3.40760
H          7.23750        1.57690        3.56440
H          6.97390        3.00930        2.47890
H          9.46000        0.36170       -0.15640
H          8.30390       -1.00690       -1.85130
H          5.94700       -1.27390       -1.73940
