62

P          1.00940       -0.06240        0.07760
C          0.78840       -0.66000       -1.62850
C         -0.44890       -1.17440       -2.06140
C         -0.61710       -1.66080       -3.35760
C          0.45850       -1.66990       -4.24090
C          1.70300       -1.18920       -3.82440
C          1.86870       -0.68150       -2.52650
C          0.68670       -1.19630        1.45640
C          1.33450       -1.05370        2.69240
C          0.99180       -1.88500        3.76680
C          0.01300       -2.87200        3.62430
C         -0.59980       -3.04760        2.38830
C         -0.25780       -2.22710        1.31150
C         -0.32380        1.29640        0.19540
C         -1.85040        1.06500       -0.00430
C         -2.52580        0.39090        1.19550
C         -2.32620        1.23560        2.46320
C         -0.84440        1.52750        2.71930
C         -0.16910        2.15450        1.48200
Au         3.46940       -0.06240        0.07760
Br         3.46940       -2.64230       -0.15170
C          3.46940        2.07910        0.26790
C          2.88820        2.84560       -0.65430
C          5.61940       -0.06240        0.07760
N          6.43560        1.06020       -0.02780
C          6.18600        2.47550       -0.30680
C          7.71560        0.64020        0.06120
Cl         9.16830        1.64240       -0.01280
C          7.73940       -0.69020        0.20300
Cl         9.23030       -1.63560        0.35710
N          6.47490       -1.16470        0.21160
C          6.27910       -2.60660        0.39650
H         -1.29600       -1.23240       -1.40840
H         -1.58180       -2.04280       -3.66870
H          0.32680       -2.06120       -5.24190
H          2.53980       -1.21810       -4.50950
H          2.84300       -0.32350       -2.22530
H          2.07860       -0.28180        2.83280
H          1.46970       -1.75220        4.73600
H         -0.27510       -3.49400        4.46010
H         -1.36290       -3.81530        2.26280
H         -0.77450       -2.38610        0.37600
H         -0.02500        1.95850       -0.64630
H         -2.10180        0.58340       -0.95630
H         -2.32860        2.06810       -0.09970
H         -2.12950       -0.62040        1.33490
H         -3.61630        0.29140        1.00530
H         -2.76220        0.70730        3.34010
H         -2.86100        2.20090        2.34030
H         -0.36470        0.59600        3.00280
H         -0.74530        2.20950        3.59080
H          0.89970        2.37900        1.68030
H         -0.67670        3.13130        1.31160
H          3.88310        2.53000        1.16370
H          2.44320        2.39640       -1.53450
H          2.86450        3.92350       -0.52900
H          5.41030        2.60950       -1.07380
H          7.03660        2.90040       -0.88160
H          6.13310        3.06670        0.63110
H          7.21580       -3.15780        0.59720
H          5.93120       -3.06970       -0.54780
H          5.66120       -2.79500        1.29850
