50

P          1.27500        0.00000        0.00000
N          0.23370       -1.43450       -0.12960
C         -1.19440       -1.20620       -0.04720
C         -1.47560        0.28210        0.02900
C         -3.00140        0.47730        0.04470
C         -0.81500        0.81690        1.36270
N          0.62960        0.50810        1.54330
N          0.62370        0.72770       -1.45120
C         -0.83270        0.97050       -1.24480
Au         3.73500        0.00030       -0.00050
Br         3.73560       -1.59540        2.03960
C          3.73450        1.32490       -1.69400
C          3.71900        2.64690       -1.55450
P          6.19500        0.00070       -0.00090
C          7.33720        1.18780       -0.80470
C          6.73810       -0.14800        1.72950
C          6.70640       -1.48350       -1.03850
C          6.21480       -1.35890       -2.49500
C          8.25510       -1.64040       -1.06800
C          6.13510       -2.76380       -0.42170
H          0.54110       -2.14840        0.56920
H         -1.60920       -1.73120        0.84540
H         -1.66710       -1.66570       -0.94420
H         -3.45390       -0.05860        0.91080
H         -3.45720        0.04800       -0.87750
H         -3.26890        1.55000        0.10750
H         -1.37080        0.38750        2.22890
H         -0.96230        1.91620        1.40880
H          0.75520       -0.28670        2.21230
H          0.77240        0.04920       -2.23490
H         -1.37840        0.62470       -2.15370
H         -1.00630        2.06400       -1.16860
H          3.71180        0.89020       -2.68760
H          3.72320        3.09420       -0.56880
H          3.70150        3.28250       -2.43590
H          7.11620        2.18320       -0.36280
H          7.10600        1.29710       -1.88270
H          8.40750        1.00000       -0.62470
H          6.42720        0.79620        2.23560
H          7.84590       -0.17570        1.76380
H          6.33030       -1.00740        2.27650
H          6.65890       -0.48720       -3.01480
H          5.11230       -1.27190       -2.53390
H          6.52150       -2.25210       -3.08280
H          8.76160       -0.83030       -1.63130
H          8.56060       -2.56980       -1.59350
H          8.67710       -1.67190       -0.04100
H          5.02880       -2.73450       -0.40460
H          6.52360       -2.90330        0.61020
H          6.45300       -3.64730       -1.02040
