47

P          1.27500        0.00000        0.00000
O          0.30760       -1.42980       -0.12870
C         -1.07900       -1.21630       -0.09970
C         -1.39770        0.25890        0.05910
C         -2.92500        0.44550        0.09040
C         -0.71350        0.72840        1.39700
O          0.68020        0.40530        1.53590
O          0.64450        0.69610       -1.41130
C         -0.73920        0.98470       -1.17590
Au         3.73500        0.00030       -0.00050
Br         3.73470        2.55910        0.40030
C          3.73520       -2.12380       -0.33310
C          3.67460       -2.64240       -1.55760
P          6.19500        0.00070       -0.00090
C          7.41600       -0.17270        1.36230
C          6.59340       -1.71380       -0.50130
C          6.89940        1.59380       -0.79220
C          6.78960        2.94000       -0.01890
C          8.41730        1.42160       -1.04660
C          6.22720        1.73490       -2.17140
H         -1.49940       -1.79870        0.75090
H         -1.51510       -1.61410       -1.04010
H         -3.36410       -0.13050        0.93670
H         -3.38130        0.05520       -0.84610
H         -3.19430        1.51370        0.20490
H         -1.23960        0.21450        2.23800
H         -0.85660        1.81410        1.52170
H         -1.28950        0.66690       -2.08730
H         -0.87680        2.08420       -1.06920
H          3.73520       -2.78180        0.52980
H          3.65730       -1.99510       -2.42620
H          3.65730       -3.72050       -1.68730
H          7.14450       -1.03290        2.00850
H          7.36500        0.73320        2.00190
H          8.45560       -0.31840        1.01570
H          6.23600       -2.46530        0.22890
H          7.69400       -1.82940       -0.61100
H          6.18460       -1.89570       -1.51380
H          6.99490        2.83760        1.06360
H          5.88340        3.51720       -0.21720
H          7.50510        3.68780       -0.42340
H          8.99600        1.45050       -0.10170
H          8.80460        2.27270       -1.65400
H          8.63440        0.49010       -1.60180
H          5.12400        1.83010       -2.06180
H          6.42230        0.83460       -2.79360
H          6.59610        2.62690       -2.71730
