44

P          1.27500        0.00000        0.00000
O          0.35280       -1.18800       -0.85490
C         -1.03740       -1.04360       -0.75390
C         -1.40410        0.17880        0.06230
C         -2.93390        0.31500        0.12140
C         -0.77210       -0.03950        1.48850
O          0.61500       -0.40760        1.50720
O          0.67520        1.29040       -0.92270
C         -0.72970        1.41000       -0.65300
Au         3.73500        0.00030       -0.00050
Br         3.73500        1.99690        1.64930
C          3.73500       -1.65710       -1.36990
C          3.21370       -2.83720       -1.04490
N          5.83500        0.00060       -0.00090
C          6.58290        0.96840        0.62990
C          7.97520        1.05390        0.46440
C          8.66640        0.06930       -0.25100
N         10.08630        0.13580       -0.45050
C         10.90800       -1.06760       -0.45430
C         10.74800        1.39990       -0.71880
C          7.91890       -0.96800       -0.80160
C          6.52670       -0.95330       -0.71460
H         -1.45050       -1.96780       -0.29240
H         -1.44960       -0.96440       -1.78520
H         -3.38400       -0.59500        0.57790
H         -3.35100        0.41040       -0.90650
H         -3.23130        1.20110        0.71390
H         -1.32400       -0.87530        1.97310
H         -0.92700        0.86900        2.10610
H         -1.22980        1.53970       -1.63890
H         -0.91630        2.32740       -0.05800
H          4.14850       -1.51120       -2.36360
H          2.77820       -2.99560       -0.06580
H          3.21750       -3.64580       -1.77020
H          6.15790        1.78080        1.16730
H          8.50410        1.88880        0.90250
H         10.32800       -1.97320       -0.18890
H         11.70810       -0.95750        0.31220
H         11.37620       -1.20330       -1.44800
H         10.02870        2.24340       -0.79240
H         11.26150        1.33630       -1.70270
H         11.49880        1.61880        0.06670
H          8.39380       -1.76650       -1.35790
H          6.05640       -1.77980       -1.19820
