83

P          1.09430        0.03080       -0.01220
C          0.21210       -1.45800       -0.85140
C          0.72970       -1.82860       -2.26130
C          2.04110       -2.69040       -2.25380
C          1.90370       -3.95850       -1.44040
C          1.51010       -3.56970       -0.01440
C          0.18260       -2.79900       -0.03460
C          0.33950        0.01160        1.75180
C          0.72180        1.18100        2.73400
C          0.03810        2.52160        2.46510
C         -1.46670        2.36300        2.59240
C         -1.93530        1.30960        1.60010
C         -1.22260       -0.05320        1.81870
C          0.63610        1.53450       -1.06150
C         -0.65440        1.72350       -1.71960
C         -1.78290        0.72190       -1.86890
C         -0.99090        2.99220       -2.23890
C         -0.14500        4.08150       -2.14130
C         -0.56090        5.41570       -2.69190
C          1.07280        3.93250       -1.50220
C          1.46470        2.70120       -0.93570
C          2.75930        2.75680       -0.15590
Au         3.55430        0.03080       -0.01220
Br         3.55430       -0.04330       -2.60110
C          3.55430        0.09240        2.13690
C          4.25490        1.04480        2.76530
C          5.70430        0.03080       -0.01220
N          6.58230        0.47760       -1.00810
C          6.48190        1.20410       -2.30730
C          7.44000        0.70800       -3.40390
C          7.82760        0.29980       -0.52430
C          7.77060       -0.26630        0.69000
N          6.48540       -0.44880        1.03560
C          6.21500       -1.21600        2.26810
C          5.42770       -2.47570        1.94000
H         -0.84590       -1.23950       -0.89210
H          0.84580       -0.91420       -2.89080
H         -0.02930       -2.46230       -2.77610
H          2.85540       -2.19790       -1.71950
H          2.34930       -2.93340       -3.29230
H          2.88760       -4.49240       -1.42750
H          1.15350       -4.63290       -1.90320
H          2.29490       -2.94730        0.46380
H          1.39460       -4.50400        0.58050
H         -0.18080       -2.64110        0.99090
H         -0.55430       -3.47880       -0.52510
H          0.72190       -0.93520        2.18410
H          1.76720        1.42430        2.79000
H          0.43270        0.86770        3.76420
H          0.30100        2.89700        1.45920
H          0.38370        3.27010        3.21210
H         -1.95890        3.33850        2.38050
H         -1.72880        2.06100        3.63030
H         -1.72610        1.72370        0.60820
H         -3.03410        1.18240        1.70430
H         -1.63520       -0.82030        1.14240
H         -1.50240       -0.37610        2.84790
H         -2.14830        0.33650       -0.91100
H         -1.48390       -0.08000       -2.56390
H         -2.70510        1.16670       -2.31160
H         -1.95260        3.14830       -2.72070
H         -1.56500        5.38150       -3.15320
H          0.17250        5.74340       -3.45810
H         -0.58680        6.17010       -1.86770
H          1.69510        4.80960       -1.39690
H          3.23350        3.75810       -0.18830
H          3.50730        2.06590       -0.57660
H          2.57400        2.54060        0.91000
H          2.86300       -0.50500        2.71600
H          4.87550        1.73460        2.20620
H          4.18080        1.14480        3.84460
H          6.73120        2.27700       -2.12030
H          5.51330        1.29520       -2.73090
H          8.50030        0.91730       -3.14490
H          7.25070        1.26420       -4.34820
H          7.31720       -0.37720       -3.59810
H          8.75040        0.56890       -1.01750
H          8.63210       -0.54850        1.28110
H          5.76850       -0.65200        3.07620
H          7.16830       -1.54140        2.74260
H          4.47090       -2.23140        1.43980
H          5.21310       -3.03390        2.87540
H          6.02250       -3.11950        1.25770
