66

P          1.06530       -0.02590        0.07110
C          0.46120       -1.37540       -0.95910
C         -0.72560       -2.10180       -0.80700
C         -0.99860       -3.16610       -1.69000
C         -0.10260       -3.48970       -2.72110
C          1.06940       -2.75790       -2.87790
C          1.34950       -1.71630       -1.99870
C          0.49820       -0.73300        1.67670
C          0.77960       -1.99910        2.22300
C          0.29330       -2.35630        3.49260
C         -0.50710       -1.47670        4.21890
C         -0.84090       -0.23480        3.67700
C         -0.34460        0.11850        2.43210
C          0.21660        1.52770       -0.36820
C          0.41960        2.72210        0.39820
O          1.29490        2.72260        1.44610
C          1.69330        3.84310        2.15970
C         -0.25350        3.90360        0.02110
C         -1.10900        3.91170       -1.07610
C         -1.30660        2.74710       -1.81810
C         -0.65270        1.56600       -1.46890
Au         3.52530       -0.02590        0.07110
Br         3.66200       -2.36920        0.83350
C          3.76460        2.00940       -0.50000
C          2.93870        2.86380       -1.08650
P          5.98530       -0.02590        0.07110
N          6.93830       -0.37720       -1.40420
C          8.39560       -0.34070       -1.25400
C          8.75650       -0.09950        0.20310
C         10.28610       -0.11220        0.37600
C          8.18930        1.31480        0.58770
N          6.78250        1.53880        0.17570
N          6.63770       -1.46620        0.82270
C          8.09210       -1.24750        1.06170
H         -1.42190       -1.87740       -0.01260
H         -1.90000       -3.75050       -1.58020
H         -0.31060       -4.30590       -3.40260
H          1.77060       -2.99500       -3.67120
H          2.27590       -1.16500       -2.13150
H          1.34470       -2.73430        1.70580
H          0.53510       -3.32110        3.91390
H         -0.88120       -1.75350        5.20020
H         -1.47580        0.44180        4.22780
H         -0.63800        1.08810        2.06820
H          2.44820        3.55810        2.92080
H          0.82810        4.30890        2.67840
H          2.16220        4.58990        1.47870
H         -0.11540        4.83140        0.56180
H         -1.61180        4.82860       -1.35760
H         -1.97010        2.76790       -2.67160
H         -0.82620        0.68360       -2.06600
H          4.72460        2.45170       -0.36630
H          1.99090        2.58550       -1.46710
H          3.27380        3.87320       -1.31120
H          6.62880        0.23590       -2.19450
H          8.82500        0.46390       -1.89570
H          8.80710       -1.30860       -1.61310
H         10.75420        0.67290       -0.25920
H         10.70590       -1.09200        0.05990
H         10.56720        0.07480        1.43230
H          8.80640        2.10630        0.10250
H          8.29300        1.46450        1.68320
H          6.76920        2.00950       -0.75880
H          6.49960       -2.26730        0.16280
H          8.61970       -2.20730        0.85850
H          8.25200       -1.02100        2.13670
