76

P          1.08010        0.05890       -0.01050
C         -0.00890        1.60880        0.07290
C          0.09400        2.29040        1.48870
C          1.23860        3.29160        1.67130
C          1.09320        4.42150        0.65470
C          1.17860        3.82850       -0.73930
C          0.08180        2.77300       -0.97850
C          0.72960       -0.18590       -1.90220
C          1.35050       -1.47140       -2.53160
C          0.47960       -2.76810       -2.41060
C         -0.90620       -2.58490       -2.98760
C         -1.58220       -1.43990       -2.23740
C         -0.76320       -0.14610       -2.42960
C          0.21800       -1.30870        1.09640
C         -0.97380       -1.08870        1.95480
C         -1.88880        0.10680        2.20600
C         -1.50990       -2.13440        2.73230
C         -1.02930       -3.41060        2.71480
C         -1.69310       -4.47930        3.54670
C          0.05100       -3.69720        1.91770
C          0.70260       -2.72310        1.11860
C          1.90820       -3.37870        0.39910
Au         3.54010        0.05890       -0.01050
Br         3.54010        1.71730       -2.00000
C          3.54010       -1.31780        1.64090
C          2.67440       -1.25430        2.65600
N          5.64010        0.05890       -0.01050
C          6.30090       -1.05260        0.43860
N          7.64680       -1.09410        0.52260
C          8.38830       -0.00990        0.23100
O          9.74650       -0.07180        0.37070
C         10.42620       -1.24650        0.59070
C          7.77260        1.14710       -0.22230
C          6.37180        1.14540       -0.39190
H         -0.99580        1.18150       -0.10390
H          0.18560        1.54100        2.29800
H         -0.83200        2.88750        1.65440
H          2.22130        2.78480        1.56450
H          1.17810        3.73140        2.69200
H          1.90760        5.16550        0.79470
H          0.12070        4.94750        0.78450
H          2.17410        3.41010       -0.81090
H          1.08930        4.63560       -1.49810
H          0.11810        2.42660       -2.02360
H         -0.87380        3.33930       -0.89890
H          1.23150        0.65310       -2.38760
H          2.38730       -1.61020       -2.16310
H          1.44110       -1.30360       -3.62570
H          0.26550       -3.06420       -1.38070
H          0.98930       -3.61510       -2.92160
H         -1.49260       -3.52790       -2.85740
H         -0.84470       -2.37700       -4.07800
H         -1.69160       -1.68210       -1.15770
H         -2.60060       -1.31360       -2.66540
H         -1.35900        0.70480       -2.07380
H         -0.71740        0.00160       -3.53260
H         -1.90650        0.99620        1.62220
H         -1.79220        0.42530        3.26880
H         -2.94310       -0.20610        2.03770
H         -2.37460       -1.96100        3.37090
H         -2.54620       -4.07790        4.13980
H         -0.96560       -4.92140        4.25470
H         -2.09530       -5.27390        2.88240
H          0.39110       -4.72690        1.94140
H          1.76030       -4.47890        0.29470
H          2.81570       -3.44710        1.00410
H          2.18530       -3.04650       -0.59650
H          4.32950       -1.99650        1.89030
H          1.88590       -0.52220        2.69980
H          2.78920       -1.92750        3.50390
H          5.78990       -1.97190        0.60690
H         11.50550       -1.03750        0.73930
H         10.31510       -1.91270       -0.29160
H         10.04280       -1.77660        1.49080
H          8.34890        2.04160       -0.42210
H          5.88940        2.06000       -0.69320
