73

P          1.02470       -0.06240       -0.07420
O          0.51430        1.46640        0.47620
C         -0.84540        1.65150        0.18640
C         -1.17740        3.12150        0.40750
O          0.92650       -0.91550       -1.54600
C          1.39630       -0.07930       -2.57450
C          0.95570       -0.65630       -3.91430
C         -0.00300       -1.31400        0.74880
C         -0.83430       -2.23690        0.08180
C         -1.41680       -3.29410        0.79490
C         -1.18200       -3.44010        2.16630
C         -0.37480       -2.51680        2.83230
C          0.20950       -1.46390        2.12900
Au         3.48470       -0.06240       -0.07420
Br         3.48470       -2.60900       -0.54620
C          3.48470        2.05160        0.31760
C          4.50680        2.90600        0.41940
P          5.94470       -0.06240       -0.07420
C          6.83460       -1.63180        0.00910
C          7.74030       -2.13930       -0.93220
C          8.26060       -3.43590       -0.75500
C          7.88130       -4.21690        0.34320
C          6.98720       -3.71080        1.28300
C          6.47060       -2.43420        1.11530
C          6.38170        0.69350       -1.65030
C          7.16880        1.85590       -1.68910
C          7.53890        2.41680       -2.91440
C          7.13070        1.81940       -4.10900
C          6.34950        0.66020       -4.07860
C          5.97480        0.09740       -2.85290
C          6.41870        0.65630        1.52880
C          7.77990        0.88170        1.83110
O          8.72000        0.57270        0.89890
C         10.08420        0.70850        1.04450
C          8.12990        1.39750        3.09750
C          7.14500        1.67540        4.04610
C          5.80480        1.43230        3.75290
C          5.44390        0.91610        2.50740
H         -1.46490        1.04870        0.88510
H         -1.08520        1.40460       -0.87310
H         -0.92300        3.41760        1.44850
H         -2.25970        3.29800        0.23870
H         -0.59300        3.75330       -0.29520
H          2.50780       -0.04480       -2.54990
H          0.97210        0.95060       -2.51380
H          1.32680       -1.69700       -4.02790
H          1.35910       -0.03870       -4.74430
H         -0.15360       -0.66180       -3.98270
H         -1.00570       -2.18250       -0.98310
H         -2.02950       -4.02000        0.27710
H         -1.61130       -4.27470        2.70610
H         -0.17630       -2.64130        3.89360
H          0.87360       -0.79000        2.65440
H          2.52620        2.52730        0.42140
H          5.53240        2.63260        0.30720
H          4.30800        3.95640        0.60830
H          8.02550       -1.56520       -1.79920
H          8.94710       -3.85020       -1.48050
H          8.26960       -5.22130        0.47360
H          6.67630       -4.30820        2.13230
H          5.75670       -2.06930        1.84520
H          7.51070        2.32570       -0.77730
H          8.14930        3.31080       -2.93690
H          7.42420        2.25230       -5.05690
H          6.04050        0.19520       -5.00580
H          5.37880       -0.80630       -2.84200
H         10.58360        0.33900        0.12590
H         10.44210        0.10400        1.90580
H         10.34730        1.77710        1.19050
H          9.16230        1.57900        3.36370
H          7.42330        2.06740        5.01610
H          5.04440        1.63540        4.49600
H          4.40100        0.71100        2.31690
