63

P          1.05990        0.07960        0.00870
C          0.30690        1.41570       -1.04660
C         -0.79820        1.33900       -1.92120
C         -1.19320        2.48090       -2.67620
C         -0.49700        3.69720       -2.57530
C          0.59650        3.77620       -1.74790
C          0.97430        2.65190       -1.03670
C          0.98820       -1.34490       -1.13730
C          1.69950       -1.33230       -2.34760
C          1.68250       -2.45130       -3.19760
C          0.96710       -3.59700       -2.84330
C          0.24740       -3.62140       -1.65300
C          0.24860       -2.50430       -0.81580
C          0.07990        0.27100        1.60690
C         -0.35010        1.49310        2.24470
C         -0.08420        2.87450        1.72420
C         -1.08450        1.45860        3.44380
C         -1.42070        0.24980        4.05040
C         -1.00400       -0.93270        3.46380
C         -0.26570       -0.92460        2.28190
Au         3.51990        0.07960        0.00870
Br         3.81340        2.49270        0.73450
C          3.08310       -0.94160        1.77750
C          3.76690       -2.00680        2.18270
N          5.61990        0.07960        0.00870
C          6.42070       -0.08970        1.16830
N          5.96420       -0.22280        2.56800
C          4.94490        0.58080        3.24060
C          6.70950       -1.00320        3.55030
C          7.81930       -0.03370        1.00370
C          8.38730        0.20880       -0.23410
C          7.57850        0.40790       -1.33990
C          6.19410        0.34400       -1.19920
H         -1.34860        0.42000       -2.02910
H         -2.03580        2.44490       -3.34580
H         -0.78730        4.58210       -3.13180
H          1.16360        4.69940       -1.63740
H          1.78250        2.80040       -0.43480
H          2.27520       -0.46290       -2.63510
H          2.23240       -2.44240       -4.12930
H          0.96180       -4.46920       -3.48830
H         -0.31370       -4.50730       -1.37570
H         -0.33620       -2.58700        0.07270
H         -0.63970        3.02200        0.78170
H          1.00700        3.04080        1.64440
H         -0.47010        3.67200        2.39420
H         -1.42160        2.36450        3.92730
H         -1.98540        0.23780        4.97180
H         -1.25040       -1.87110        3.94770
H          0.04970       -1.88250        1.92610
H          2.22280       -0.69530        2.36550
H          4.59620       -2.38430        1.60320
H          3.45090       -2.52500        3.08530
H          4.27830        1.07960        2.59540
H          5.41390        1.33940        3.89980
H          4.29680       -0.04540        3.89140
H          7.54520       -1.57920        3.12160
H          6.02370       -1.74330        4.02070
H          7.08670       -0.33840        4.36210
H          8.49330       -0.12260        1.84450
H          9.46470        0.27160       -0.32070
H          8.02880        0.61960       -2.30060
H          5.56710        0.50380       -2.06470
