85

P          1.09500       -0.03080        0.00510
C          0.51990        1.54400        0.80480
C         -0.28110        1.52900        1.97250
C         -0.74090        2.71850        2.56150
C         -0.40680        3.95130        2.01250
C          0.36850        4.00030        0.86230
C          0.80740        2.81660        0.26540
C          0.74640       -0.12580       -1.76040
C          0.03450        0.89800       -2.40660
C         -0.27390        0.79640       -3.76530
C          0.12550       -0.32840       -4.48920
C          0.83500       -1.35260       -3.85420
C          1.14510       -1.25390       -2.49270
C         -0.00460       -1.33160        0.72900
C         -1.50190       -1.30420        0.59990
C         -2.13200       -1.36210       -0.65390
C         -3.52490       -1.44300       -0.74170
C         -4.30440       -1.47290        0.41790
C         -3.69320       -1.41720        1.67130
C         -2.30230       -1.33390        1.76340
Au         3.55500       -0.03080        0.00510
Br         3.55500        2.15600       -1.38290
C          3.55500       -1.84600        1.15720
C          4.60410       -2.53800        1.60110
C          5.70500       -0.03080        0.00510
N          6.56790        0.63860        0.83180
C          6.28250        1.60390        1.90410
C          7.56140        2.40250        2.30550
C          7.26070        3.45220        3.37260
C          6.68690        2.75680        4.60870
C          5.40100        1.99960        4.23500
C          5.65790        0.94710        3.13610
C          7.81480        0.31250        0.39410
C          7.71490       -0.40900       -0.75540
N          6.41110       -0.53830       -1.04250
C          5.83220       -0.99260       -2.30270
C          5.79110       -2.50310       -2.42030
C          4.86200       -2.82130       -3.59980
C          5.39360       -2.22100       -4.91450
C          5.67910       -0.71020       -4.78200
C          6.55590       -0.41570       -3.55670
H         -0.56610        0.61140        2.44660
H         -1.36330        2.68260        3.44680
H         -0.75660        4.87060        2.46710
H          0.62370        4.95660        0.42100
H          1.34060        2.93810       -0.63830
H         -0.30940        1.76750       -1.87040
H         -0.83040        1.58650       -4.25240
H         -0.12110       -0.40680       -5.54030
H          1.13600       -2.22600       -4.41690
H          1.68330       -2.05880       -2.00910
H          0.27060       -1.38940        1.80450
H          0.32610       -2.29330        0.28550
H         -1.55440       -1.37900       -1.56260
H         -3.99950       -1.50480       -1.71100
H         -5.38120       -1.55500        0.34710
H         -4.29450       -1.45770        2.57130
H         -1.85170       -1.32420        2.74860
H          2.57480       -2.23520        1.40160
H          5.62650       -2.24400        1.41940
H          4.41500       -3.44310        2.17600
H          5.57370        2.35820        1.48810
H          7.98100        2.91850        1.41110
H          8.33860        1.71980        2.71330
H          6.53570        4.19650        2.97590
H          8.19800        3.99180        3.63650
H          6.46640        3.51340        5.39370
H          7.44250        2.04460        5.01040
H          4.65030        2.73630        3.87270
H          4.99560        1.49650        5.13670
H          4.69820        0.46510        2.85340
H          6.35340        0.17120        3.52020
H          8.75240        0.63570        0.82570
H          8.54610       -0.72810       -1.37750
H          4.79750       -0.60290       -2.29330
H          5.35930       -2.93630       -1.48950
H          6.80830       -2.93000       -2.56950
H          3.85750       -2.38600       -3.37610
H          4.73380       -3.92000       -3.70610
H          4.64690       -2.37970       -5.72250
H          6.33210       -2.74190       -5.18710
H          4.72570       -0.15580       -4.65490
H          6.15930       -0.33880       -5.71940
H          6.71700        0.68100       -3.48380
H          7.56400       -0.88290       -3.68800
