56

P          0.96620        0.09410        0.00170
C          0.15850        0.49990       -1.61230
C         -1.04900       -0.08740       -2.06690
C         -1.45590        0.08780       -3.40610
C         -0.68990        0.85300       -4.29580
C          0.48550        1.42860       -3.85940
C          0.90320        1.23290       -2.55090
C          0.38800       -1.61710        0.13030
C          0.66950       -2.55100       -0.89490
C          0.34400       -3.89880       -0.72810
C         -0.29580       -4.32230        0.43850
C         -0.62590       -3.39470        1.43250
C         -0.28660       -2.04520        1.28000
C          0.45980        1.50670        1.03640
C          0.77020        1.47360        2.42490
O          1.50950        0.44630        2.92530
C          1.81960        0.24500        4.26110
C          0.26900        2.48530        3.27380
C         -0.53200        3.50140        2.76840
C         -0.84120        3.53200        1.41030
C         -0.35240        2.54960        0.54760
Au         3.42620        0.09410        0.00170
Br         3.42620        2.57830       -0.73090
C          3.42620       -1.96810        0.60980
C          4.13760       -2.97820        1.18680
O          5.47620        0.09410        0.00170
C          6.17220       -1.06100        0.31770
C          6.03790       -2.10760       -0.82510
C          7.66620       -0.80370        0.50460
H         -1.62320       -0.73120       -1.43020
H         -2.35030       -0.39220       -3.77360
H         -0.98800        0.97630       -5.33360
H          1.10840        1.99810       -4.54340
H          1.84120        1.63620       -2.32950
H          1.20160       -2.24490       -1.78910
H          0.60940       -4.62020       -1.49180
H         -0.53040       -5.37080        0.57490
H         -1.12490       -3.72700        2.33280
H         -0.51800       -1.34460        2.07130
H          2.41010       -0.68760        4.37340
H          0.89090        0.13790        4.86420
H          2.42390        1.09200        4.64960
H          0.47590        2.48120        4.33600
H         -0.92740        4.25600        3.43520
H         -1.48510        4.31390        1.03070
H         -0.65020        2.59870       -0.48500
H          2.49750       -2.37460        0.49600
H          5.13380       -3.02890        1.58250
H          3.64600       -3.93670        1.34440
H          5.86280       -1.25060        1.34620
H          6.58300       -1.77900       -1.73160
H          5.00500       -2.26690       -1.18490
H          6.44730       -3.08750       -0.49630
H          8.15660       -0.55110       -0.45870
H          8.13550       -1.73380        0.90220
H          7.84330        0.01280        1.23280
