37

C          0.90100       -0.64300       -0.00200
N         -0.36000       -1.11030       -0.01290
C         -0.77210       -2.51130       -0.03480
C         -1.61480       -2.85120        1.18990
C         -1.16120       -0.02230       -0.01610
C         -0.36050        1.10210       -0.00860
N          0.92720        0.70440       -0.00180
C          2.12090        1.54530       -0.00690
C          2.15840        2.46000        1.21760
Au         2.65840       -1.88140       -0.01350
Br         2.68210       -1.82380       -2.60280
C          2.63880       -1.92930        2.13590
C          1.72680       -1.30750        2.89010
O          4.33420       -3.06230       -0.02450
C          4.75010       -3.86350        0.94140
C          5.90760       -4.49620        0.54810
C          6.18900       -4.03330       -0.71290
C          5.17600       -3.15690       -1.03590
H          0.12870       -3.17030       -0.04800
H         -1.36250       -2.70480       -0.95620
H         -1.03190       -2.66890        2.11690
H         -1.90820       -3.92080        1.15310
H         -2.53680       -2.23240        1.21080
H         -2.24200       -0.04250       -0.02800
H         -0.69060        2.13170       -0.01140
H          2.12700        2.16990       -0.92570
H          3.03690        0.91280       -0.00660
H          1.27580        3.13370        1.22510
H          3.07520        3.08700        1.18730
H          2.16610        1.85640        2.14990
H          3.38970       -2.44930        2.69870
H          0.91200       -0.73250        2.48080
H          1.79260       -1.37250        3.97210
H          4.26960       -4.07080        1.87730
H          6.47480       -5.22060        1.11740
H          7.03470       -4.30700       -1.32910
H          5.12510       -2.61390       -1.96350
