70

P          1.27500        0.00000        0.00000
N          0.48550        1.59780       -0.30840
C          0.90730        2.59440        0.73480
C          2.43520        2.81110        0.70600
C          0.28190        4.00030        0.55390
C         -0.93620        1.55710       -0.64850
C         -1.49640        0.19750       -0.37330
C         -3.03410        0.20630       -0.56870
C         -0.82860       -0.83550       -1.35550
N          0.68140       -0.81860       -1.45800
C          1.16580       -2.24400       -1.49620
C          0.57620       -3.05270       -2.67280
C          2.69430       -2.37480       -1.56390
N          0.22170       -0.44480        1.44730
C          0.14190       -1.89750        1.90340
C          1.44670       -2.63240        2.17120
C         -0.67420       -2.05520        3.24290
C         -1.19830       -0.09220        1.11730
Au         3.73500        0.00030       -0.00050
Br         3.73440        0.96670       -2.40340
C          3.73550       -0.80190        1.99430
C          3.62990       -0.02830        3.07320
N          5.83500        0.00060       -0.00090
C          6.45950        1.15340       -0.35560
C          7.85820        1.25590       -0.26490
O          8.51510        2.43930       -0.37660
C          7.92070        3.67950       -0.21600
C          8.59310        0.10230        0.02500
C          7.93230       -1.08680        0.33940
C          6.53540       -1.09670        0.39060
H          0.62600        2.22600        1.74750
H          2.75660        3.19590       -0.28510
H          2.99630        1.88810        0.91560
H          2.74540        3.53710        1.48850
H          0.51410        4.40020       -0.45430
H          0.69670        4.69500        1.31740
H         -0.80860        4.03110        0.72370
H         -1.07760        1.84060       -1.71370
H         -1.52980        2.26380       -0.04380
H         -3.30960        0.48930       -1.60460
H         -3.51360        0.92320        0.13470
H         -3.46010       -0.79910       -0.35670
H         -1.22110       -0.65910       -2.38040
H         -1.22560       -1.82090       -1.02120
H          0.84440       -2.77860       -0.58790
H          0.88620       -2.62250       -3.64450
H         -0.53000       -3.11390       -2.64190
H          0.93120       -4.10610       -2.60990
H          3.09090       -1.90700       -2.48560
H          2.97940       -3.44940       -1.55490
H          3.18040       -1.94270       -0.67780
H         -0.38770       -2.50740        1.13680
H          1.94190       -2.20030        3.06520
H          2.08050       -2.66390        1.27300
H          1.23850       -3.69210        2.43110
H         -0.19280       -1.48720        4.06380
H         -0.72710       -3.12650        3.53810
H         -1.73380       -1.73760        3.20320
H         -1.52030        0.74460        1.77470
H         -1.91490       -0.90410        1.34700
H          3.91640       -1.86160        2.11800
H          3.51040        1.04290        2.98550
H          3.68810       -0.47550        4.06120
H          5.85190        2.01910       -0.58050
H          8.70660        4.46030       -0.15780
H          7.35530        3.71410        0.74540
H          7.23760        3.90450       -1.05890
H          9.67460        0.13600        0.05050
H          8.49520       -1.98190        0.56460
H          6.01230       -2.00960        0.64580
