53

C          1.02400       -0.65300       -0.05500
N          1.01890        0.53790        0.44970
C          2.15570        1.26130        0.97750
C         -0.30760        1.09810        0.45700
C         -1.08430        0.16600       -0.46280
N         -0.26210       -1.01810       -0.53820
C         -0.81530       -2.33600       -0.31170
Au         2.78020       -1.86970       -0.29550
Br         3.21490       -1.74630        2.25480
C          2.41930       -1.97220       -2.41250
C          3.18920       -2.61710       -3.29290
C          4.53640       -3.08650       -0.53600
N          4.56610       -4.38430       -0.62760
C          3.43280       -5.30340       -0.64290
C          3.71340       -6.49750       -1.58870
C          3.14400       -5.85260        0.75540
C          5.94000       -4.85730       -0.73700
C          6.73500       -3.61940       -1.07720
N          5.86770       -2.55610       -0.67200
C          6.42920       -1.22630       -0.47230
C          5.77220       -0.16560       -1.33220
C          6.47080       -0.84650        1.02170
H          2.59240        0.75710        1.84940
H          1.83160        2.26400        1.33720
H          2.91680        1.40950        0.18550
H         -0.35520        2.14180        0.07710
H         -0.68670        1.04630        1.50200
H         -1.07820        0.60200       -1.48840
H         -2.13720        0.01860       -0.14540
H         -1.83030       -2.24930        0.14930
H         -0.18840       -2.92400        0.38700
H         -0.92780       -2.86650       -1.27640
H          1.53910       -1.45860       -2.78540
H          4.08050       -3.15390       -3.00700
H          2.92050       -2.61330       -4.34400
H          2.53130       -4.77420       -1.02200
H          4.56060       -7.12080       -1.20340
H          3.98920       -6.14390       -2.60690
H          2.84300       -7.17580       -1.67040
H          4.02870       -6.39350        1.15620
H          2.29240       -6.56660        0.70560
H          2.87390       -5.02740        1.44240
H          6.14210       -5.60190       -1.53350
H          6.22980       -5.25880        0.25870
H          6.86040       -3.51940       -2.18000
H          7.72490       -3.63860       -0.57240
H          7.50600       -1.25760       -0.76780
H          4.70910       -0.03360       -1.04940
H          5.84790       -0.46520       -2.39940
H          6.31300        0.79690       -1.20250
H          5.46170       -0.66270        1.40670
H          7.05120        0.08980        1.15340
H          6.96420       -1.65130        1.61110
