39

C          1.02400       -0.65300       -0.05500
N          0.80830        0.41210       -0.73410
C          1.76060        1.02380       -1.63540
C         -0.45230        1.02140       -0.37950
C         -1.10620       -0.00530        0.55990
N         -0.03470       -0.92980        0.82970
C         -0.15160       -2.09400        1.67500
Au         2.78020       -1.86970       -0.29550
Br         3.29530       -1.62560        2.23100
C          2.35260       -2.07240       -2.39280
C          2.69710       -2.94290       -3.35610
N          4.49560       -3.05820       -0.53040
C          5.04150       -3.65980        0.57830
C          6.19840       -4.46050        0.51890
O          6.69000       -5.13020        1.59530
C          6.08880       -5.21180        2.83700
C          6.85970       -4.58000       -0.69680
C          6.34960       -3.94200       -1.81600
C          5.16420       -3.20980       -1.71820
H          2.71020        0.44980       -1.68050
H          2.01630        2.03840       -1.25950
H          1.32360        1.11560       -2.65000
H         -1.09200        1.23140       -1.26330
H         -0.22830        1.96410        0.16790
H         -1.90190       -0.57020        0.02380
H         -1.51610        0.47270        1.47350
H         -1.16280       -2.13630        2.13320
H          0.58720       -2.04790        2.49520
H          0.00660       -3.01340        1.07380
H          1.58760       -1.38140       -2.72390
H          3.32870       -3.80730       -3.22770
H          2.26830       -2.82310       -4.34720
H          4.54860       -3.62320        1.51830
H          6.70170       -5.85690        3.49820
H          5.07900       -5.66750        2.74290
H          6.00810       -4.20380        3.29530
H          7.77030       -5.16040       -0.77120
H          6.88330       -3.99280       -2.75750
H          4.90690       -2.65120       -2.58980
