58

P          0.96700        0.06540       -0.06800
C          0.11720       -0.69460        1.46250
C         -1.39910       -0.68180        1.71570
C          0.56500       -2.15710        1.71020
C          0.57420        1.89660       -0.05070
C         -0.93060        2.24690       -0.08210
C          1.21840        2.64280        1.11090
C          0.46730       -0.99810       -1.54090
C          0.88110       -2.47080       -1.48490
C         -1.04250       -0.94520       -1.86420
Au         3.42700        0.06540       -0.06800
Br         3.42700        1.17820       -2.40680
C          3.42700       -0.85820        1.87340
C          3.05510       -0.22770        2.98450
N          5.52700        0.06540       -0.06800
C          5.74600        1.52190       -0.18600
C          6.19130       -0.49700        1.10440
C          6.06550       -0.54770       -1.26340
C          7.34870       -0.21350       -1.77740
C          7.86210       -0.90150       -2.87150
C          7.14300       -1.93370       -3.46860
C          5.88690       -2.28810       -2.94950
C          5.35110       -1.59560       -1.86140
H          0.55300       -0.09870        2.28580
H         -1.95950       -1.31620        1.01300
H         -1.84840        0.30680        1.78500
H         -1.58110       -1.12330        2.72330
H         -0.08510       -2.88530        1.20080
H          0.47690       -2.40620        2.78990
H          1.59550       -2.37550        1.39700
H          0.99630        2.30340       -0.99300
H         -1.43190        2.04760        0.87080
H         -1.48190        1.75840       -0.89670
H         -1.06690        3.33680       -0.23880
H          0.83960        2.26590        2.08230
H          0.96280        3.72510        1.03890
H          2.32010        2.54760        1.06040
H          0.99010       -0.55510       -2.41100
H          0.24330       -3.05880       -0.80940
H          1.94890       -2.58450       -1.22330
H          0.70640       -2.93250       -2.48160
H         -1.66270       -1.36420       -1.05640
H         -1.27330       -1.54650       -2.76860
H         -1.38380        0.07260       -2.10000
H          3.74440       -1.89420        1.93890
H          2.72600        0.80230        2.95590
H          3.07200       -0.75970        3.93170
H          4.76580        2.03150       -0.08440
H          6.17230        1.89140       -1.14340
H          6.37770        1.92520        0.63700
H          5.84950        0.00580        2.03280
H          7.29440       -0.35030        1.04500
H          5.99630       -1.58790        1.17980
H          7.95590        0.55680       -1.32690
H          8.84460       -0.63790       -3.25750
H          7.55690       -2.47580       -4.29980
H          5.33890       -3.10560       -3.39820
H          4.39260       -1.89910       -1.46020
