59

P         -1.35000        0.00100        0.79800
N         -1.09250       -1.13340       -0.58270
C         -2.23000       -1.06750       -1.52450
C          0.15610       -1.29810       -1.36950
C          1.43780       -1.11920       -0.61520
N          1.56320        0.19360        0.04020
C          1.22550        1.53420       -0.49800
C         -0.19180        1.71690       -1.10250
N         -1.37060        1.48060       -0.21610
C         -1.75170        2.68240        0.51820
N         -0.12050       -0.73750        1.87530
C         -0.68660       -1.62780        2.88730
C          0.90700        0.21000        2.35980
C          2.09010        0.15100        1.40460
Au        -3.32260        0.00260        2.26790
Br        -2.12800        1.79780        3.55580
C         -4.03580       -1.65510        1.26140
C         -5.17970       -1.57260        0.58030
C         -5.04660        0.00400        3.55250
N         -5.43330        0.95850        4.33290
C         -5.02220        2.34070        4.19840
C         -6.66950        0.62870        5.00050
C         -7.12310       -0.65510        4.32490
N         -5.97490       -1.07620        3.55610
C         -5.46210       -2.43010        3.73830
H         -3.19210       -0.91020       -1.01270
H         -2.30670       -2.01230       -2.10020
H         -2.12040       -0.21980       -2.23420
H          0.17950       -0.73620       -2.30840
H          0.15260       -2.36300       -1.73990
H          2.30450       -1.29730       -1.28690
H          1.44950       -1.93910        0.14310
H          1.98300        1.79890       -1.26370
H          1.31590        2.29300        0.31210
H         -0.31590        1.17340       -2.03810
H         -0.22620        2.75820       -1.48790
H         -1.87750        3.53510       -0.18350
H         -0.97720        2.95120        1.26390
H         -2.75020        2.53380        0.97590
H         -1.55030       -1.16500        3.40320
H          0.07920       -1.89780        3.64610
H         -0.98830       -2.57930        2.40100
H          0.50910        1.24280        2.39470
H          1.30270       -0.04390        3.36880
H          2.65590       -0.79970        1.56290
H          2.83030        0.96160        1.58720
H         -3.47750       -2.58480        1.28400
H         -5.73160       -0.63880        0.56320
H         -5.56570       -2.43360        0.04510
H         -4.57940        2.52930        3.19770
H         -4.41800        2.68010        5.06030
H         -5.92820        2.98560        4.14050
H         -7.45650        1.40970        4.90080
H         -6.43160        0.45870        6.07240
H         -7.93820       -0.45120        3.59850
H         -7.48210       -1.38960        5.07920
H         -5.98360       -2.95920        4.56480
H         -4.38050       -2.41740        4.00460
H         -5.61650       -3.03620        2.82640
