54

C          0.90100       -0.64300       -0.00200
N         -0.39450       -1.06600       -0.21580
C         -0.96020       -2.44080       -0.41100
C         -0.45190       -3.38530        0.69530
C         -2.51630       -2.44580       -0.32490
C         -0.58120       -2.99390       -1.78550
C         -1.14180        0.05190       -0.10080
C         -0.32860        1.11870        0.14900
N          0.94840        0.69810        0.22200
C          2.10670        1.62160        0.40440
C          1.91330        2.40460        1.71110
C          3.46060        0.89320        0.44870
C          2.15630        2.59650       -0.79840
Au         2.65840       -1.88140       -0.01350
Br         2.68560       -1.81890       -2.60260
C          2.63590       -1.93330        2.13580
C          1.66330       -1.38060        2.87070
N          4.37500       -3.09110       -0.02470
C          5.13110       -3.20000       -1.17000
C          6.31590       -3.95100       -1.22490
C          7.22990       -3.87480       -2.41510
C          6.66960       -4.73390       -0.13590
C          5.89700       -4.67910        1.00920
C          4.79900       -3.81670        1.06740
H         -0.74350       -3.00810        1.70060
H          0.65080       -3.48800        0.65940
H         -0.89330       -4.40230        0.57630
H         -2.86240       -2.11630        0.68120
H         -2.92210       -3.46990       -0.48770
H         -2.97630       -1.79250       -1.09390
H          0.50440       -3.12370       -1.86040
H         -0.94620       -2.30920       -2.58090
H         -1.04490       -3.99220       -1.94330
H         -2.21700        0.12330       -0.18320
H         -0.66110        2.13940        0.26090
H          1.87890        1.70390        2.57080
H          0.96490        2.98370        1.69620
H          2.74410        3.12440        1.86560
H          3.53220        0.23340        1.32320
H          4.28840        1.62900        0.53900
H          3.63300        0.30390       -0.47830
H          1.18620        3.11170       -0.96250
H          2.41020        2.05160       -1.73500
H          2.93140        3.37740       -0.64040
H          3.40000       -2.35460        2.75120
H          0.80550       -0.88510        2.44790
H          1.71890       -1.41850        3.95470
H          4.93770       -2.60880       -2.02960
H          6.87840       -3.12510       -3.15660
H          7.33210       -4.86120       -2.90540
H          8.23160       -3.53520       -2.06520
H          7.54880       -5.36510       -0.16600
H          6.14640       -5.30270        1.85880
H          4.24930       -3.90530        1.96820
