59

C          0.90100       -0.64300       -0.00200
N         -0.40350       -1.06170        0.18820
C         -1.05950       -2.39260        0.37770
C         -0.07330       -3.53320        0.66580
C         -2.07600       -2.32070        1.54690
C         -1.84610       -2.75860       -0.91200
C         -1.15060        0.05810        0.04890
C         -0.34450        1.12710       -0.18240
N          0.93310        0.71080       -0.22600
C          2.07260        1.64290       -0.41120
C          2.09700        2.69150        0.72770
C          3.41520        0.90060       -0.38800
C          1.89430        2.38440       -1.75550
Au         2.65840       -1.88140       -0.01350
Br         2.57150       -1.98090       -2.60010
C          2.73070       -1.79890        2.13370
C          3.80930       -1.81740        2.90970
N          4.37500       -3.09110       -0.02470
C          5.17040       -3.64580        0.93940
N          6.29140       -4.20330        0.43230
C          7.52380       -4.53230        1.13210
C          7.81060       -3.92030        2.37670
C          9.05880       -4.06910        2.97930
C         10.04420       -4.85430        2.36660
C          9.77920       -5.47310        1.14840
C          8.52920       -5.31870        0.53200
C          6.11690       -4.21410       -0.89460
C          4.97890       -3.50580       -1.17270
H          0.43090       -3.38170        1.64060
H          0.67910       -3.63410       -0.14270
H         -0.63150       -4.49580        0.73060
H         -1.57000       -2.01540        2.48480
H         -2.57780       -3.29960        1.70590
H         -2.88980       -1.59250        1.34080
H         -1.15580       -2.88160       -1.77420
H         -2.59100       -1.97780       -1.17710
H         -2.40430       -3.71260       -0.78340
H         -2.22920        0.11260        0.10410
H         -0.68090        2.14770       -0.30750
H          2.22540        2.20710        1.71990
H          1.16190        3.29300        0.76000
H          2.93970        3.41090        0.58200
H          3.55650        0.41300        0.61020
H          4.25550        1.60760       -0.53610
H          3.46310        0.13910       -1.16950
H          1.01400        3.06390       -1.70850
H          1.72420        1.66270       -2.57940
H          2.78090        3.01150       -1.98700
H          1.83340       -1.47470        2.65190
H          4.79130       -1.75680        2.47420
H          3.73440       -1.63650        3.97530
H          5.04980       -3.62380        1.99250
H          7.09800       -3.26480        2.86150
H          9.28290       -3.56490        3.91210
H         11.01990       -4.95350        2.83290
H         10.55090       -6.06500        0.67210
H          8.37620       -5.77360       -0.43570
H          6.80550       -4.62160       -1.62520
H          4.64890       -3.35460       -2.17600
