38

C          1.02400       -0.65300       -0.05500
N          1.00120        0.62180       -0.19810
C          2.09880        1.46520       -0.60020
C         -0.32830        1.15110        0.05490
C         -1.21700       -0.09760        0.09770
N         -0.26610       -1.16590        0.25750
C         -0.61860       -2.39740        0.90380
C         -1.91880       -2.91300        0.74080
C         -2.32440       -4.06740        1.41350
C         -1.44630       -4.71070        2.28420
C         -0.15230       -4.20880        2.46550
C          0.27010       -3.06370        1.76890
Au         2.78020       -1.86970       -0.29550
Br         4.02960       -0.40960        1.44100
C          1.74310       -3.08180       -1.73700
C          0.51140       -2.89570       -2.21920
C          4.53640       -3.08650       -0.53600
N          5.73160       -2.78300        0.00720
C          6.53350       -3.78980       -0.38040
C          5.80040       -4.66450       -1.14810
O          4.57450       -4.20640       -1.22260
H          2.95870        0.85630       -0.94020
H          2.38490        2.13690        0.23210
H          1.76950        2.08580       -1.46210
H         -0.69870        1.84110       -0.73040
H         -0.30020        1.66280        1.04530
H         -1.72520       -0.25820       -0.87800
H         -1.95790       -0.02780        0.92650
H         -2.62420       -2.42170        0.08350
H         -3.32660       -4.45190        1.26830
H         -1.77470       -5.59240        2.82230
H          0.51320       -4.70430        3.16040
H          1.26500       -2.67750        1.94760
H          2.28580       -3.93290       -2.13000
H         -0.12200       -2.07570       -1.93790
H          0.11490       -3.59290       -2.95030
H          7.57990       -3.87860       -0.12110
H          6.15460       -5.57360       -1.61510
