55

C          2.32700        0.03400        0.00000
N          1.51690        1.16780       -0.00530
C          1.90020        2.59610        0.19040
C          1.54370        3.50890       -0.99320
C          1.23170        3.16790        1.47820
C          0.23930        0.70020       -0.04190
C          0.26070       -0.66330        0.01700
C         -0.92920       -1.41640        0.05140
C         -2.15880       -0.74540        0.01310
C         -2.19160        0.65200       -0.05190
C         -0.99460        1.38790       -0.07460
N          1.53720       -1.09830        0.05110
C          1.87960       -2.53380        0.11990
C          2.06880       -3.11640       -1.24020
C          3.30880       -3.69070       -1.54990
C          3.53100       -4.23370       -2.81670
C          2.52010       -4.21100       -3.78220
C          1.27180       -3.65830       -3.47230
C          1.04240       -3.11440       -2.20390
Au         4.47690        0.05800        0.00140
Br         4.46360        1.37960       -2.22600
C          4.48790       -1.03900        1.85040
C          3.39320       -1.26970        2.58780
N          6.57670        0.08150        0.00280
C          7.34610       -0.97120        0.48210
Cl         6.73300       -2.58960        0.83970
C          8.73840       -0.88020        0.54390
C          9.37770        0.25600        0.08290
C          8.62270        1.28110       -0.47120
C          7.22560        1.17630       -0.50710
H          2.99610        2.66290        0.35720
H          0.47720        3.44820       -1.27950
H          2.16610        3.27000       -1.87420
H          1.74280        4.57070       -0.71780
H          0.12940        3.24150        1.42090
H          1.57470        4.20690        1.67440
H          1.46820        2.55190        2.36890
H         -0.93850       -2.49430        0.10780
H         -3.08290       -1.31240        0.03190
H         -3.14850        1.16180       -0.08220
H         -1.08090        2.45970       -0.12410
H          1.07810       -3.09600        0.64520
H          2.76040       -2.70870        0.74480
H          4.09420       -3.72260       -0.81000
H          4.49260       -4.66470       -3.04210
H          2.70090       -4.61400       -4.76070
H          0.48400       -3.64660       -4.21330
H          0.06640       -2.70230       -1.99670
H          5.39420       -1.28960        2.37190
H          2.41110       -0.93250        2.30500
H          3.47400       -1.72960        3.56540
H          9.32660       -1.70780        0.92460
H         10.45750        0.32140        0.12760
H          9.12030        2.15850       -0.86130
H          6.67790        2.00930       -0.90940
