56

C          0.90100       -0.64300       -0.00200
N          0.93290        0.69110        0.15950
C          2.11110        1.51900        0.37170
C         -0.34450        1.10570        0.10450
C         -1.14740       -0.00010       -0.09410
N         -0.36160       -1.10400       -0.16030
C         -0.78650       -2.47640       -0.38350
C         -2.14540       -2.79590       -0.58090
C         -2.54600       -4.11790       -0.80150
C         -1.60110       -5.14450       -0.82580
C         -0.25490       -4.84990       -0.62920
C          0.15180       -3.53180       -0.41110
Au         2.65840       -1.88140       -0.01350
Br         2.86030       -1.57120       -2.57690
C          2.49090       -2.13900        2.11440
C          1.50650       -1.63720        2.86470
P          4.66930       -3.29850       -0.02670
C          6.00710       -3.52090       -1.25110
C          5.69430       -2.76290        1.40250
C          5.40920       -1.60590        2.15300
C          6.17690       -1.26260        3.27140
C          7.28710       -2.02890        3.61990
C          7.63250       -3.13620        2.84760
C          6.83780       -3.50870        1.75680
C          4.05440       -4.97980       -0.18790
C          3.35380       -5.38300       -1.33620
C          2.98290       -6.72190       -1.49240
C          3.31720       -7.66490       -0.52460
C          4.00880       -7.27010        0.62580
C          4.37610       -5.92830        0.79290
H          3.02860        0.89170        0.38160
H          2.02570        2.04070        1.34850
H          2.19390        2.27090       -0.44030
H         -0.67070        2.13350        0.20590
H         -2.22310        0.02470       -0.18590
H         -2.90970       -2.03400       -0.57270
H         -3.59140       -4.34850       -0.95620
H         -1.91200       -6.16700       -0.99710
H          0.47680       -5.64650       -0.64730
H          1.19730       -3.36020       -0.26920
H          3.23250       -2.73280        2.63160
H          0.70970       -1.03300        2.46020
H          1.49900       -1.82600        3.93350
H          6.52080       -2.54190       -1.37490
H          5.55860       -3.77270       -2.23570
H          6.74200       -4.29770       -0.98030
H          4.58540       -0.95930        1.90100
H          5.91180       -0.39740        3.86640
H          7.88620       -1.75660        4.48010
H          8.51170       -3.71550        3.10110
H          7.13150       -4.38200        1.19480
H          3.11310       -4.66680       -2.11080
H          2.45560       -7.03450       -2.39020
H          3.04350       -8.70530       -0.65450
H          4.28070       -8.00080        1.37360
H          4.94100       -5.64580        1.67050
