63

C          0.90100       -0.64300       -0.00200
N          0.05680       -0.54430       -1.05660
C          0.23350       -1.11150       -2.37030
C         -0.94190        0.24580       -0.65170
C         -0.71650        0.60620        0.66730
N          0.44700        0.04840        1.07570
C          0.98990        0.12590        2.42470
C          0.14980        0.38970        3.52590
C          0.66480        0.43070        4.82790
C          2.02660        0.23440        5.05280
C          2.86850       -0.02150        3.97580
C          2.34880       -0.09510        2.68110
Au         2.65840       -1.88140       -0.01350
Br         0.96210       -3.69560        0.25400
C          3.87060       -0.15000       -0.26980
C          3.38770        1.08020       -0.49140
P          4.66930       -3.29850       -0.02670
O          6.28370       -3.43130       -0.61280
C          6.66070       -2.22850       -1.32410
C          7.91390       -2.47710       -2.18310
C          5.64740       -1.59790       -2.34240
O          5.34260       -2.57610        1.37000
C          4.69080       -3.00950        2.56920
C          4.36980       -4.52220        2.71550
C          5.59540       -2.64670        3.75270
O          4.33450       -4.96950       -0.21040
C          3.46780       -5.26790       -1.28220
C          4.14500       -5.16870       -2.63940
C          2.93250       -6.68340       -1.03100
H          1.17060       -1.70910       -2.42040
H          0.30430       -0.28880       -3.11670
H         -0.62500       -1.76270       -2.62590
H         -1.78620        0.55410       -1.25280
H         -1.36250        1.23210        1.27050
H         -0.91420        0.53140        3.39100
H          0.00510        0.60730        5.66590
H          2.42690        0.27560        6.05610
H          3.92640       -0.17030        4.14610
H          3.03450       -0.31430        1.90860
H          4.94540       -0.25010       -0.24650
H          2.33120        1.29980       -0.57230
H          4.06830        1.91280       -0.64020
H          6.91830       -1.48390       -0.54080
H          7.66140       -3.11480       -3.06370
H          8.72300       -2.97250       -1.61890
H          8.29510       -1.50900       -2.58630
H          5.61410       -2.10960       -3.32270
H          5.95820       -0.54100       -2.53190
H          4.59820       -1.58060       -2.03160
H          3.74540       -2.44680        2.67430
H          5.28470       -5.14630        2.62010
H          3.59670       -4.86330        2.00420
H          3.91930       -4.71510        3.71380
H          6.53710       -3.23900        3.72100
H          5.07880       -2.86780        4.71350
H          5.85460       -1.57010        3.73620
H          2.61770       -4.59270       -1.33990
H          5.04590       -5.80900       -2.67820
H          4.41770       -4.11340       -2.83330
H          3.42360       -5.47460       -3.42920
H          3.77170       -7.41210       -1.00620
H          2.20930       -6.98880       -1.81560
H          2.41350       -6.72690       -0.04700
