43

C         -0.15240       -1.19660       -0.03280
N         -0.44230       -0.16940       -0.93630
C         -0.99710       -0.07710       -2.29870
C          0.01750        0.98870       -0.37730
Cl         0.01130        2.60900       -1.10450
C          0.50320        0.74350        0.85810
Cl         1.08370        2.00510        1.97090
N          0.41240       -0.58080        1.10040
C          0.71630       -1.10680        2.43440
Au        -0.49020       -3.48260       -0.01010
Br         2.01540       -3.84040        0.53970
C         -2.57010       -3.18570       -0.46640
C         -3.15190       -2.00450       -0.60710
N         -0.84350       -5.43220       -0.02200
C         -1.43550       -6.16470       -1.00730
C         -1.67350       -5.67280       -2.43770
C         -1.26700       -4.39570       -2.90960
C         -1.35540       -4.05970       -4.27570
C         -1.76880       -5.00940       -5.20830
C         -2.15020       -6.27230       -4.77740
C         -2.13730       -6.58960       -3.41430
N         -1.45960       -7.55560       -0.71250
C         -0.56010       -7.81190        0.36950
C         -0.31690       -6.41540        0.93050
H         -1.55270       -0.96000       -2.63150
H         -0.17620        0.17450       -3.01890
H         -1.69850        0.79310       -2.37350
H          1.12850       -0.31800        3.11010
H          1.46850       -1.89190        2.37640
H         -0.22890       -1.41810        2.93250
H         -3.19570       -4.06440       -0.58010
H         -2.59660       -1.10580       -0.49850
H         -4.20750       -1.92870       -0.83140
H         -0.83850       -3.65770       -2.25330
H         -1.06640       -3.07630       -4.62940
H         -1.78350       -4.77980       -6.26890
H         -2.44220       -7.01560       -5.50910
H         -2.45120       -7.58280       -3.15360
H         -1.80040       -8.31360       -1.31510
H          0.37550       -8.22010       -0.07450
H         -0.94440       -8.54250        1.11740
H          0.73150       -6.28830        1.27570
H         -0.98450       -6.28550        1.80480
