24

C         -0.14390       -1.29270       -0.01790
N         -1.10370       -0.29440       -0.11580
C         -2.57110       -0.29870       -0.13650
C         -0.44390        0.88290       -0.04360
Cl        -1.16800        2.49400       -0.07980
C          0.87960        0.64120        0.11910
Cl         2.11770        1.89980        0.20570
N          1.07580       -0.69440        0.20430
C          2.39890       -1.27000        0.46340
Au        -0.49020       -3.48260       -0.01010
Br        -0.56360       -3.48730       -2.59900
C         -0.42920       -3.47880        2.13910
C         -0.25790       -2.39340        2.89750
C         -0.86700       -5.48370       -0.04280
O         -1.04920       -6.59580        0.03220
H         -3.00620       -1.30940       -0.15510
H         -2.94440        0.31920       -0.98100
H         -2.93910        0.21660        0.79310
H          3.12480       -0.46630        0.73140
H          2.82660       -1.77650       -0.42470
H          2.35310       -1.93560        1.34370
H         -0.50330       -4.44040        2.63690
H         -0.16020       -1.40180        2.48490
H         -0.18430       -2.49920        3.97470
