33

C         -0.13890       -1.03840       -0.01250
N         -1.15050       -0.03420        0.01270
C         -2.62100        0.08400        0.02950
C         -0.52620        1.17510        0.01370
Cl        -1.25870        2.78730        0.02900
C          0.79050        1.02160       -0.00580
Cl         1.93540        2.39470       -0.01470
N          1.09090       -0.28900       -0.02040
C          2.56640       -0.49410       -0.09580
Au        -0.49020       -3.48260       -0.01010
Br        -3.05430       -3.11880        0.02250
C          1.63830       -3.78470       -0.03710
C          2.42460       -3.00940        0.48700
N         -0.82460       -5.52570       -0.08060
C          0.16450       -6.37540        0.36220
C          0.02800       -7.75910        0.32290
C         -1.12810       -8.30250       -0.20620
F         -1.25500       -9.64620       -0.32860
C         -2.15630       -7.45420       -0.61120
C         -2.01490       -6.06980       -0.47560
H         -3.18590       -0.78600        0.02960
H         -2.98900        0.63340       -0.86720
H         -2.95220        0.61410        0.94830
H          3.25670        0.36080       -0.15080
H          2.82470       -1.06740       -1.01040
H          2.96360       -0.76650        0.90710
H          2.07340       -4.72360       -0.35130
H          1.80280       -2.34590        1.03880
H          3.49170       -3.18220        0.51110
H          1.05840       -6.01500        0.83520
H          0.81980       -8.40400        0.69850
H         -3.05380       -7.86330       -1.04650
H         -2.80980       -5.46860       -0.86270
