61

C          2.32700        0.03400        0.00000
N          1.52260        1.13460        0.02690
C          1.92850        2.54570       -0.02560
C          2.81630        2.82980       -1.24690
C          2.06190        2.65350       -2.57100
C          2.96580        2.98730       -3.75580
C          0.25920        0.64820        0.01690
C          0.30040       -0.72490        0.03050
C         -0.87520       -1.49000        0.08250
C         -2.10090       -0.81500        0.07840
C         -2.14800        0.59040        0.03180
C         -0.95770        1.33880        0.00540
N          1.58360       -1.13890        0.02290
C          1.99060       -2.56250        0.24560
C          2.28450       -2.91100        1.71080
C          2.26730       -1.93770        2.72720
C          2.59490       -2.26770        4.04700
C          2.93050       -3.57780        4.38700
C          2.91750       -4.57150        3.40820
C          2.59660       -4.24640        2.07830
Au         4.47690        0.05800        0.00140
Br         4.42530        1.57790        1.99250
C          4.25190       -1.24780       -1.66220
C          5.15110       -1.63330       -2.57360
N          6.57670        0.08150        0.00280
C          7.18240        1.20550        0.50450
N          8.52560        1.37570        0.44530
C          9.33660        0.42790       -0.07160
O         10.67160        0.64090       -0.17100
C         11.27340        1.85770        0.09710
C          8.77520       -0.76620       -0.52360
C          7.38030       -0.91300       -0.48320
H          2.47110        2.81680        0.88840
H          1.05280        3.22270       -0.05060
H          3.70690        2.16350       -1.22720
H          3.17160        3.88080       -1.17980
H          1.18400        3.33590       -2.58890
H          1.70220        1.60690       -2.67390
H          3.32640        4.03600       -3.68210
H          2.40100        2.87430       -4.70490
H          3.84130        2.30370       -3.77750
H         -0.86550       -2.56980        0.12400
H         -3.02260       -1.38140        0.11150
H         -3.10320        1.09410        0.03140
H         -1.00790        2.41940       -0.00810
H          2.86580       -2.85950       -0.34620
H          1.18150       -3.23820       -0.09680
H          2.01650       -0.91320        2.51020
H          2.59620       -1.49950        4.80820
H          3.19710       -3.82010        5.41020
H          3.16670       -5.59060        3.68740
H          2.60080       -5.04330        1.34360
H          3.24290       -1.54010       -1.92050
H          6.17280       -1.31020       -2.60620
H          4.81770       -2.22280       -3.42280
H          6.61960        2.03970        0.86170
H         12.36190        1.78190       -0.10240
H         11.12050        2.15090        1.15810
H         10.85430        2.64630       -0.56700
H          9.40290       -1.54790       -0.92480
H          6.96960       -1.85030       -0.80890
