30

N         -1.41410       -0.05440       -0.07440
C         -0.82660        1.17880        0.09610
C          0.55890        1.32590        0.19290
C          1.37220        0.21170        0.05120
F          2.72110        0.34050        0.08880
C          0.78980       -1.03360       -0.14500
C         -0.60110       -1.15140       -0.17640
Au        -3.47560       -0.20170       -0.28210
Br        -3.47810        2.21590       -1.21100
C         -3.47360       -2.20870        0.48910
C         -4.41900       -3.12680        0.74630
N         -5.57410       -0.18060       -0.49800
C         -5.55840       -0.33010       -1.97450
N         -6.39740       -1.16940       -0.03830
C         -7.58380       -0.72950        0.18220
C         -7.63660        0.63680       -0.05190
C         -6.35720        1.00680       -0.44620
H         -1.40650        2.07090        0.23920
H          0.99460        2.30180        0.36720
H          1.41180       -1.90610       -0.29700
H         -0.97990       -2.12320       -0.41040
H         -2.51520       -2.60740        0.74910
H         -5.46870       -3.06830        0.58370
H         -4.10900       -4.08940        1.14520
H         -5.19080       -1.33980       -2.25980
H         -4.94670        0.42000       -2.50400
H         -6.58600       -0.28970       -2.44260
H         -8.40190       -1.35700        0.51600
H         -8.49630        1.28450        0.05780
H         -6.06570        2.01390       -0.68940
