29

N         -1.40700       -0.16280       -0.02320
C         -0.74880        1.03710        0.00750
C          0.64040        1.14340        0.03960
Cl         1.41160        2.71920        0.00360
C          1.39230       -0.01530        0.06780
C          0.74360       -1.24550        0.12510
C         -0.65910       -1.30660        0.10310
Au        -3.47560       -0.20170       -0.28210
Br        -3.51990       -2.44780        1.00680
C         -3.43890        1.66280       -1.35200
C         -2.42350        2.26980       -1.98930
N         -5.53740       -0.33350       -0.53730
C         -6.16460       -1.56090       -0.57620
C         -7.52970       -1.66210       -0.88230
C         -8.29200       -0.51120       -1.04280
F         -9.61780       -0.58980       -1.31750
C         -7.68230        0.72610       -0.91230
C         -6.30520        0.78800       -0.69930
H         -1.29740        1.96710        0.05380
H          2.47320        0.04220        0.05840
H          1.33020       -2.15380        0.15790
H         -1.10370       -2.27660        0.07890
H         -4.34120        2.13390       -1.68520
H         -1.43780        1.84510       -2.09350
H         -2.61700        3.15130       -2.59590
H         -5.61350       -2.47480       -0.51570
H         -7.99430       -2.63390       -1.00720
H         -8.26400        1.63560       -0.97930
H         -5.91040        1.77350       -0.54790
