32

N         -1.46050       -0.03560       -0.13190
C         -0.91410        1.03060        0.52210
C          0.47830        1.16380        0.62290
F          1.02640        2.19950        1.30590
C          1.29990        0.21870        0.00850
C          0.72640       -0.85580       -0.67090
C         -0.66790       -0.97840       -0.71450
Au        -3.47560       -0.20170       -0.28210
Br        -3.28940        1.11650       -2.50370
C         -3.63020       -1.29600        1.56220
C         -2.59050       -1.55780        2.35470
N         -5.51060       -0.26680       -0.42270
C         -6.22550        0.87510       -0.68740
C         -5.56860        2.22250       -0.67880
C         -7.62460        0.83170       -0.76820
C         -8.28710       -0.37820       -0.59180
C         -7.55490       -1.52730       -0.30850
C         -6.16370       -1.44570       -0.20080
H         -1.55610        1.76070        0.99730
H          2.37880        0.31830        0.05590
H          1.35680       -1.58560       -1.16270
H         -1.11920       -1.80250       -1.24570
H         -4.59170       -1.68560        1.87090
H         -1.58840       -1.23450        2.11290
H         -2.74310       -2.13780        3.26060
H         -4.49510        2.15100       -0.42100
H         -6.01010        2.82250        0.14700
H         -5.72580        2.75900       -1.63580
H         -8.19820        1.73780       -0.92640
H         -9.36740       -0.41930       -0.64870
H         -8.06130       -2.47380       -0.17170
H         -5.60390       -2.35020       -0.00820
