60

P          1.09270       -0.01610       -0.03370
O         -0.36250       -0.18700       -0.90390
C         -0.08300        0.20990       -2.25390
O          0.63570       -0.98730        1.29470
C          0.46060       -2.31850        0.86160
O          0.92280        1.68630       -0.20590
C          1.37030        2.37250        0.92100
Au         3.55270       -0.01610       -0.03370
Br         3.55270        0.69140        2.45770
C          3.55270       -0.60350       -2.10190
C          3.63370        0.10910       -3.22940
C          5.70270       -0.01610       -0.03370
N          6.51840       -1.15620       -0.08690
C          6.06990       -2.58880       -0.01000
C          5.33300       -3.01990       -1.24430
C          7.15430       -3.65310        0.22360
C          7.79230       -0.66380       -0.06020
C          7.74870        0.70980        0.00550
C          8.91580        1.49040        0.01600
C         10.15650        0.84840       -0.01520
C         10.22240       -0.54980       -0.04200
C          9.05090       -1.31640       -0.06250
N          6.46620        1.12490        0.07580
C          6.09670        2.56030        0.14630
C          6.24980        3.23260       -1.21410
C          5.30650        2.90320       -2.17480
C          5.35350        3.42850       -3.47130
C          6.36620        4.31980       -3.81990
C          7.31300        4.69540       -2.85880
C          7.25580        4.16370       -1.55830
H         -0.18660       -0.63980       -2.95840
H          0.93810        0.62960       -2.45640
H         -0.76480        1.03550       -2.54320
H         -0.17190       -2.84280        1.60870
H          1.43720       -2.83990        0.80250
H         -0.10080       -2.41920       -0.09450
H          0.96730        3.40480        0.87470
H          2.46800        2.48800        0.85600
H          0.99300        1.93340        1.87070
H          3.27160       -1.61560       -2.34620
H          3.75940        1.15610       -3.31240
H          3.51850       -0.40240       -4.18190
H          5.40250       -2.69400        0.87530
H          5.88470       -2.71640       -2.16540
H          4.36510       -2.59960       -1.08460
H          5.12040       -4.10710       -1.28030
H          7.81440       -3.76240       -0.66170
H          6.67420       -4.64880        0.34660
H          7.70650       -3.46130        1.16660
H          8.88020        2.56460        0.05180
H         11.06880        1.43110       -0.01350
H         11.18810       -1.03880       -0.05010
H          9.21600       -2.36770       -0.08120
H          6.74000        3.05680        0.90410
H          5.04820        2.68540        0.48310
H          4.53190        2.24300       -1.85100
H          4.60740        3.15000       -4.20680
H          6.40710        4.72340       -4.82560
H          8.08950        5.40000       -3.13820
H          8.00170        4.47420       -0.84160
