35

N         -1.41070       -0.01690       -0.06270
C         -0.77930        1.20460       -0.02580
C          0.62890        1.29170       -0.02920
C          1.33070        2.60880       -0.15020
C          1.38920        0.12400        0.03300
C          0.74860       -1.09840        0.11990
C         -0.64300       -1.14370        0.05920
Au        -3.47560       -0.20170       -0.28210
Br        -3.70470        2.08450        0.91330
C         -3.28550       -2.09960       -1.27430
C         -2.21070       -2.57780       -1.92060
N         -5.55230       -0.30720       -0.49950
C         -6.18970       -1.50440       -0.70030
C         -7.53830       -1.60030       -0.98990
C         -8.29460       -0.44810       -1.10460
C         -9.72690       -0.54100       -1.52870
C         -7.68840        0.78240       -0.83450
C         -6.32330        0.83260       -0.50390
H         -1.33020        2.12140       -0.11170
H          0.61130        3.45290       -0.16690
H          1.90020        2.61850       -1.10580
H          2.03810        2.74730        0.69310
H          2.47280        0.16250        0.02520
H          1.32590       -2.01130        0.21700
H         -1.10140       -2.11210        0.16390
H         -4.08560       -2.75750       -1.51220
H         -1.30010       -2.01910       -2.06580
H         -2.28510       -3.52170       -2.46040
H         -5.71850       -2.44210       -0.57580
H         -7.97420       -2.58150       -1.14090
H        -10.02290       -1.59720       -1.71920
H         -9.85190        0.01740       -2.48040
H        -10.39020       -0.11750       -0.75030
H         -8.25840        1.69850       -0.91500
H         -5.89650        1.80870       -0.38860
