33

N         -1.45190       -0.14620       -0.06660
C         -0.76140       -1.30900        0.05160
C          0.60310       -1.30340        0.37170
C          1.27280       -0.09010        0.52230
Cl         2.97580       -0.06340        0.95850
C          0.57300        1.10590        0.35410
C         -0.80780        1.06190        0.09990
Au        -3.47560       -0.20170       -0.28210
Br        -3.76070       -0.11610        2.29080
C         -3.23900       -0.27280       -2.41780
C         -2.03610       -0.26290       -3.00330
N         -5.52500       -0.28980       -0.53320
C         -6.07720       -0.86460       -1.63750
C         -7.46390       -0.88540       -1.86030
O         -8.00610       -1.39170       -3.00160
C         -7.27410       -1.92980       -4.04220
C         -8.29800       -0.34880       -0.88740
C         -7.74710        0.16600        0.28150
C         -6.36380        0.18540        0.44350
H         -1.28310       -2.24730       -0.03890
H          1.13460       -2.23610        0.52960
H          1.08810        2.05240        0.45020
H         -1.35420        1.99060       -0.00890
H         -4.04610       -0.27370       -3.12700
H         -1.11190       -0.23070       -2.44970
H         -1.95700       -0.27890       -4.08590
H         -5.47110       -1.37610       -2.35140
H         -7.94420       -2.16710       -4.89000
H         -6.76720       -2.85880       -3.70310
H         -6.51400       -1.19730       -4.39700
H         -9.37030       -0.33290       -1.02620
H         -8.37910        0.57980        1.05200
H         -5.98780        0.62960        1.33490
