48

P          1.06520       -0.06200       -0.04370
O         -0.38190        0.68210       -0.56810
C         -0.16670        2.08890       -0.52590
O          0.76310       -1.58800       -0.74800
C          0.81610       -1.50560       -2.14090
O          0.79030        0.26880        1.62070
C         -0.53470       -0.08770        1.95950
Au         3.52520       -0.06200       -0.04370
Br         3.52520       -2.12530        1.52180
C          3.52520        1.65080       -1.34320
C          3.48640        2.90310       -0.89280
P          5.98520       -0.06200       -0.04370
O          7.49730       -0.69980        0.43490
C          7.25860       -2.12620        0.49330
C          8.17150       -2.88590        1.43310
O          6.12020       -0.82020       -1.58840
C          5.71240        0.03070       -2.63020
C          6.38550       -0.36990       -3.93780
O          6.35860        1.59860       -0.04610
C          5.99150        2.06040        1.23390
C          6.37950        3.52020        1.40480
H         -0.52910        2.55830       -1.45870
H          0.89620        2.41690       -0.43870
H         -0.69580        2.53090        0.34100
H          0.13310       -2.27310       -2.55950
H          1.84870       -1.72580       -2.50000
H          0.46010       -0.53300       -2.55580
H         -0.63650       -0.14520        3.06270
H         -0.83970       -1.07850        1.54850
H         -1.26050        0.69120        1.64580
H          3.48800        1.52860       -2.41640
H          3.45330        3.13350        0.15690
H          3.44420        3.72490       -1.61140
H          7.38650       -2.57010       -0.52030
H          6.24360       -2.38990        0.86720
H          9.22900       -2.78930        1.12250
H          7.89010       -3.96610        1.38630
H          8.02750       -2.54600        2.48000
H          5.95780        1.09530       -2.45250
H          4.63510       -0.16120       -2.80350
H          7.48850       -0.24350       -3.86080
H          6.00870        0.29060       -4.75190
H          6.14330       -1.41390       -4.18750
H          6.50220        1.49200        2.04770
H          4.89360        1.97900        1.37600
H          7.48400        3.62700        1.34520
H          6.03970        3.87920        2.39340
H          5.90610        4.14240        0.61210
