32

N         -1.44890       -0.05840        0.00180
C         -0.90780        0.89160        0.82180
C          0.48470        1.06710        0.88460
C          1.32090        0.28580        0.08960
F          2.66440        0.49230        0.09740
C          0.76490       -0.70120       -0.72390
C         -0.63480       -0.87080       -0.73940
Au        -3.47560       -0.20170       -0.28210
Br        -3.60350       -1.98740        1.58960
C         -3.36950        1.28060       -1.83580
C         -2.24760        1.86560       -2.26850
N         -5.51950       -0.26560       -0.55570
C         -6.19940       -1.46680       -0.54920
C         -5.48300       -2.77780       -0.56470
C         -7.58250       -1.50430       -0.77120
C         -8.27890       -0.32580       -1.00750
C         -7.59460        0.88170       -1.01760
C         -6.21680        0.89670       -0.78850
H         -1.54770        1.50670        1.42540
H          0.91540        1.82130        1.53390
H          1.41220       -1.30540       -1.34930
H         -1.05500       -1.60760       -1.41480
H         -4.27820        1.59820       -2.32660
H         -1.27170        1.64300       -1.86530
H         -2.30540        2.61410       -3.05590
H         -4.39650       -2.63270       -0.69910
H         -5.74860       -3.33660       -1.48120
H         -5.74870       -3.38650        0.32550
H         -8.10480       -2.45060       -0.81520
H         -9.34180       -0.35680       -1.21060
H         -8.13380        1.80480       -1.20010
H         -5.72000        1.85400       -0.77010
