34

N         -1.47190       -0.08110       -0.03800
C         -0.69050       -1.19090       -0.15080
C          0.68060       -1.12370        0.12970
C          1.24980        0.09490        0.52910
C          2.70560        0.18890        0.89610
C          0.43360        1.22910        0.61310
C         -0.93300        1.11700        0.33460
Au        -3.47560       -0.20170       -0.28210
Br        -3.73300       -0.66450        2.25320
C         -3.26200        0.18240       -2.38670
C         -2.06290        0.34650       -2.95560
N         -5.56930       -0.20140       -0.50550
C         -6.11220        0.34820       -1.76570
C         -5.97760       -1.61830       -0.42710
C         -6.22630        0.47820        0.63650
H         -1.13790       -2.13410       -0.43090
H          1.28730       -2.01720        0.05670
H          3.21120       -0.79750        0.82040
H          2.79410        0.53410        1.94940
H          3.23330        0.91050        0.23830
H          0.84700        2.18460        0.91470
H         -1.57080        1.98580        0.42640
H         -4.05670        0.27810       -3.09600
H         -1.13790        0.29920       -2.40420
H         -1.99120        0.54910       -4.02010
H         -5.93810       -0.32300       -2.63190
H         -5.71860        1.37490       -1.93180
H         -7.22200        0.42890       -1.73280
H         -5.50290       -2.19800       -1.24860
H         -7.08410       -1.73190       -0.51950
H         -5.65440       -2.08430        0.52620
H         -5.83920        1.51500        0.72550
H         -6.11210       -0.03980        1.60060
H         -7.33070        0.53290        0.50030
