29

N         -1.39000       -0.11200       -0.05400
C         -0.64210        0.32180       -1.11390
C          0.73890        0.45060       -0.99900
C          1.36370        0.01290        0.16850
Cl         3.11090        0.07380        0.30330
C          0.59530       -0.48130        1.22270
C         -0.79960       -0.47740        1.11490
Au        -3.47560       -0.20170       -0.28210
Br        -3.75540        1.58210        1.57470
C         -3.24340       -1.68260       -1.82340
C         -2.12150       -2.35500       -2.08510
O         -5.51160       -0.28930       -0.50470
C         -6.24260       -0.13880        0.66700
C         -7.73740       -0.20650        0.35920
C         -5.86240       -1.33470        1.57040
H         -1.15370        0.67340       -2.00660
H          1.31450        0.87280       -1.81390
H          1.07120       -0.87150        2.11430
H         -1.40810       -0.87830        1.91850
H         -4.11830       -1.88520       -2.43270
H         -1.21320       -2.20610       -1.52020
H         -2.11020       -3.07620       -2.89670
H         -6.10190        0.82260        1.18140
H         -7.97830       -1.13970       -0.19450
H         -8.03990        0.67090       -0.24540
H         -8.31980       -0.20620        1.30690
H         -6.07850       -2.30170        1.03930
H         -6.42640       -1.33540        2.52620
H         -4.77490       -1.32460        1.80490
