46

P          1.04310       -0.07330        0.05270
O         -0.07550        0.15930        1.34310
C          0.31840       -0.77420        2.36160
C         -0.32800       -0.51000        3.70980
O          0.59440        1.21030       -0.98190
C          0.69930        2.45600       -0.35060
C          0.03320        3.48060       -1.26500
O          0.53150       -1.68810       -0.27550
C         -0.88980       -1.67980       -0.47640
C         -1.46520       -3.08590       -0.44350
Au         3.50310       -0.07330        0.05270
Br         3.50310       -0.61340       -2.48040
C          3.50310        0.37510        2.15540
C          3.03460        1.49780        2.69650
N          5.60310       -0.07330        0.05270
C          6.32270       -0.50190       -1.03000
N          7.68630       -0.58640       -0.99470
C          8.38840       -0.21320        0.09760
O          9.73630       -0.33640        0.13180
C         10.46450       -1.01440       -0.82540
C          7.70890        0.28060        1.19940
C          6.30930        0.32500        1.15700
H          1.40150       -0.76250        2.56120
H          0.04780       -1.81460        2.08550
H         -0.04220        0.48870        4.09720
H          0.03970       -1.27830        4.43110
H         -1.42840       -0.60450        3.63320
H          1.76760        2.72910       -0.22470
H          0.15780        2.48600        0.61970
H          0.52100        3.47580       -2.26420
H          0.10960        4.49840       -0.83130
H         -1.04210        3.22860       -1.40080
H         -1.15990       -1.17690       -1.42780
H         -1.46560       -1.19800        0.34110
H         -1.08020       -3.68160       -1.29090
H         -2.57640       -3.02580       -0.51420
H         -1.21580       -3.58050        0.52090
H          3.93730       -0.37590        2.80890
H          2.59520        2.27880        2.09240
H          3.09060        1.62140        3.77590
H          5.88880       -0.87810       -1.92550
H         11.54270       -0.96900       -0.56750
H         10.31390       -0.56160       -1.82790
H         10.15580       -2.08320       -0.85150
H          8.24810        0.60280        2.08660
H          5.84730        0.71070        2.04430
