42

N         -1.45840       -0.14060        0.02070
C         -0.76100        0.87590       -0.58030
C          0.63680        0.88440       -0.57310
C          1.34520       -0.13580        0.07980
O          2.70790       -0.19480        0.06130
C          3.52380        0.64890       -0.67580
C          0.61270       -1.13310        0.74220
C         -0.79570       -1.12850        0.67580
Au        -3.47560       -0.20170       -0.28210
Br        -3.77220        1.18960        1.88230
C         -3.22950       -1.35670       -2.07870
C         -2.44910       -2.43440       -2.16360
N         -5.50090       -0.18680       -0.60300
C         -6.18240        0.99090       -0.75490
C         -5.46840        2.28520       -0.82790
C         -7.57240        0.97710       -0.95920
C         -8.27680       -0.22580       -0.97930
C         -9.76260       -0.24240       -1.19190
C         -7.58050       -1.41520       -0.79510
C         -6.18770       -1.39330       -0.62200
C         -5.51510       -2.71150       -0.29010
H         -1.28010        1.65600       -1.11270
H          1.16010        1.67320       -1.09960
H          4.59090        0.37160       -0.54580
H          3.38960        1.69730       -0.33800
H          3.27780        0.57220       -1.75940
H          1.12880       -1.92230        1.27450
H         -1.35150       -1.92800        1.14800
H         -3.88440       -1.13790       -2.91610
H         -1.93920       -2.82000       -1.28900
H         -2.45450       -3.02710       -3.07660
H         -4.37530        2.13960       -0.73240
H         -5.84680        2.97020       -0.04450
H         -5.66430        2.72080       -1.83290
H         -8.10130        1.90820       -1.11710
H        -10.15390        0.78380       -1.35570
H        -10.27000       -0.67340       -0.30330
H        -10.00700       -0.85400       -2.08620
H         -8.12940       -2.35420       -0.76930
H         -6.25120       -3.54570       -0.21920
H         -5.02680       -2.64810        0.70770
H         -4.78580       -3.02970       -1.04410
