66

P          1.06980       -0.02630        0.06650
O         -0.06800        0.82740       -0.91080
C          0.33850        2.20350       -0.84230
C         -0.33530        3.10940       -1.85630
O          0.60740       -1.64030       -0.25500
C          0.67190       -1.94400       -1.62070
C         -0.00520       -3.29880       -1.81620
O          0.58000        0.73960        1.53260
C         -0.83930        0.57900        1.66850
C         -1.39680        1.44850        2.78120
Au         3.52980       -0.02630        0.06650
Br         3.52980       -1.66630        2.07120
C          3.52980        1.33500       -1.59760
C          3.85810        2.62800       -1.52340
P          5.98980       -0.02630        0.06650
C          6.68220       -1.58920       -0.58130
C          7.52850       -1.65040       -1.70400
C          7.86640       -2.89010       -2.26850
C          7.37220       -4.07740       -1.72080
C          6.54740       -4.03200       -0.60190
C          6.20240       -2.80240       -0.04560
C          6.54480        1.27190       -1.08720
C          7.24010        2.35740       -0.52440
C          7.60620        3.45880       -1.30250
C          7.28550        3.49230       -2.65910
C          6.62660        2.40690       -3.24460
C          6.26900        1.29030       -2.46980
C          6.51260       -0.18070        1.80510
C          6.12150        0.87820        2.63880
C          6.60210        0.95400        3.94320
C          7.46780       -0.02320        4.41610
C          7.84450       -1.08080        3.56600
O          8.62670       -1.91220        3.97530
N          7.36420       -1.13660        2.28740
H          1.40310        2.32940       -1.04430
H          0.13570        2.64550        0.15570
H         -0.10010        2.79040       -2.89170
H          0.06690        4.14270       -1.71830
H         -1.42760        3.13720       -1.68390
H          1.73230       -2.02170       -1.93960
H          0.11580       -1.21160       -2.24510
H          0.49240       -4.07090       -1.18980
H          0.04720       -3.60970       -2.87950
H         -1.07470       -3.24120       -1.51350
H         -1.10930       -0.48320        1.84310
H         -1.42460        0.94890        0.80060
H         -0.98900        1.13360        3.75860
H         -2.50710        1.34610        2.79720
H         -1.15920        2.51770        2.58800
H          3.22760        0.92410       -2.55560
H          4.17480        3.07850       -0.59220
H          3.82100        3.23170       -2.42760
H          7.90120       -0.75750       -2.17820
H          8.49300       -2.93200       -3.14890
H          7.61560       -5.03320       -2.16730
H          6.15130       -4.94650       -0.17590
H          5.53790       -2.80980        0.79510
H          7.47140        2.37200        0.53250
H          8.11610        4.29770       -0.84560
H          7.54260        4.36360       -3.25060
H          6.37370        2.44650       -4.29700
H          5.73500        0.47540       -2.93880
H          5.47970        1.66780        2.26810
H          6.31630        1.78520        4.58010
H          7.86100        0.04780        5.42770
H          7.73910       -1.90020        1.69260
