50

N         -0.65900       -1.22800       -0.05100
C          0.20340       -0.92270        0.97370
O          0.63020       -1.84620        1.87560
C          0.37100       -3.19270        1.83520
C          0.72700        0.36930        1.08430
C          0.35540        1.34780        0.16280
C         -0.52260        1.02280       -0.86800
C         -1.01250       -0.27950       -0.96480
Au        -1.57560       -3.10440       -0.27260
Br         0.34540       -3.85800       -1.83780
C         -3.17030       -2.47880        1.02670
C         -3.30970       -1.23720        1.49520
P         -2.64940       -5.30240       -0.53210
N         -3.89360       -6.15320        0.48920
C         -3.37760       -6.14610        1.89030
C         -5.21030       -5.44820        0.62880
N         -3.62670       -5.25870       -2.05200
C         -4.49980       -6.45100       -2.27060
C         -4.37180       -4.00530       -2.26380
N         -1.26670       -6.43780       -0.70120
C         -0.50310       -6.57560        0.55500
C         -1.68730       -7.78250       -1.12430
H          0.94100       -3.70010        2.64090
H          0.72420       -3.62130        0.87840
H         -0.70850       -3.38460        1.98230
H          1.42150        0.61340        1.87900
H          0.75250        2.35110        0.24510
H         -0.82420        1.77750       -1.58080
H         -1.71060       -0.53210       -1.75110
H         -3.89140       -3.18960        1.33420
H         -2.62150       -0.44350        1.24930
H         -4.13820       -1.00290        2.15630
H         -2.67190       -6.95230        2.08980
H         -4.17390       -6.32440        2.65290
H         -2.91980       -5.16160        2.16510
H         -5.60640       -4.96630       -0.26800
H         -5.26100       -4.67380        1.42120
H         -5.96800       -6.18560        0.96660
H         -4.00300       -7.41400       -2.10520
H         -4.89930       -6.46680       -3.30360
H         -5.39610       -6.50210       -1.62750
H         -3.83810       -3.39890       -3.01770
H         -4.48710       -3.40870       -1.33770
H         -5.39190       -4.19400       -2.67940
H         -0.46900       -5.63510        1.12920
H          0.53350       -6.89280        0.32480
H         -0.88570       -7.38750        1.20790
H         -1.94770       -7.77740       -2.19730
H         -2.52010       -8.16670       -0.48880
H         -0.85310       -8.51290       -1.03440
