37

O          1.03200       -0.08680        0.03800
C          0.47310       -0.41260       -1.20600
C          0.85280       -1.82640       -1.62960
C         -1.04920       -0.29830       -1.06740
Au         3.08200       -0.08680        0.03800
Br         3.08200        1.72360       -1.81420
C          3.08200       -1.58960        1.57560
C          2.56070       -2.81250        1.52570
N          5.18200       -0.08680        0.03800
C          6.03610        0.85520       -0.41670
N          7.31860        0.53820       -0.11240
C          8.50680        1.36640       -0.21170
C          8.39720        2.76050       -0.35570
C          9.53990        3.57820       -0.32930
C         10.80640        3.00450       -0.17900
C         10.93210        1.62670       -0.05050
C          9.78670        0.80870       -0.05450
C          7.26970       -0.69200        0.44450
C          5.95230       -1.04830        0.57920
H          0.79040        0.31520       -1.97360
H          0.48080       -2.56520       -0.88870
H          1.95430       -1.91430       -1.72200
H          0.39180       -2.05890       -2.61390
H         -1.42510       -1.01730       -0.30530
H         -1.55310       -0.50660       -2.03460
H         -1.32630        0.72590       -0.73890
H          3.54260       -1.27390        2.50660
H          2.07190       -3.20300        0.64850
H          2.63800       -3.43880        2.41350
H          5.72310        1.79500       -0.84400
H          7.43320        3.24570       -0.43760
H          9.44610        4.65360       -0.41130
H         11.69020        3.63590       -0.15680
H         11.90690        1.17690        0.07230
H          9.93180       -0.25430        0.06660
H          8.10780       -1.27300        0.79340
H          5.59330       -1.96880        1.01430
