43

O         -0.32800       -1.08200        0.00300
C          0.03340       -0.37630        1.06490
C          0.36170        0.90420        0.68150
C          0.23590        0.93160       -0.68280
C         -0.21690       -0.30930       -1.06140
Au        -0.91570       -3.04590        0.01600
Br        -0.34240       -3.20080        2.53700
C         -1.39160       -2.91730       -2.07670
C         -0.79710       -3.70810       -2.96780
P         -1.62100       -5.40260        0.03160
C         -0.78140       -6.71850        0.99480
C         -3.15870       -5.54320        1.04620
C         -4.32500       -4.98010        0.50160
C         -5.58110       -5.22750        1.06990
C         -5.69840       -6.04210        2.19580
C         -4.56130       -6.59200        2.77290
C         -3.30670       -6.34920        2.21810
C         -1.85250       -6.18410       -1.63260
C         -1.16080       -7.38260       -1.93870
C         -1.17520       -7.93160       -3.22230
C         -1.85300       -7.28520       -4.24660
C         -2.58850       -6.13400       -3.96520
C         -2.63580       -5.62100       -2.65740
H          0.00540       -0.68580        2.09320
H          0.66400        1.71750        1.32630
H          0.45960        1.76440       -1.33110
H         -0.35960       -0.58280       -2.08830
H         -1.78820       -2.01720       -2.52740
H         -0.12690       -4.50280       -2.66340
H         -0.88650       -3.47150       -4.02670
H         -0.56960       -6.37660        2.02800
H          0.23050       -6.85200        0.55430
H         -1.31030       -7.69310        0.96100
H         -4.27210       -4.39300       -0.40100
H         -6.46880       -4.81600        0.61330
H         -6.67020       -6.26350        2.61450
H         -4.64980       -7.24170        3.63550
H         -2.50400       -6.86420        2.71550
H         -0.56970       -7.91860       -1.21170
H         -0.62510       -8.84290       -3.42380
H         -1.80650       -7.67930       -5.25440
H         -3.09440       -5.62300       -4.77500
H         -3.19200       -4.70830       -2.49340
