98

P          0.93640        0.05720        0.05190
C         -0.22970       -1.44210       -0.08020
C         -1.76160       -1.30950       -0.09960
C         -2.19800       -2.66870       -0.66070
C         -1.25640       -2.83400       -1.83930
C          0.08880       -2.44500       -1.23410
C          0.34990        0.59320        1.74440
C          0.77570       -0.24110        2.94520
C          0.31990        0.63820        4.10850
C          0.87730        1.98390        3.68170
C          0.47300        2.07410        2.20580
C          0.14770        1.02050       -1.36150
C          0.55090        2.45380       -1.67860
C         -0.32390        2.72310       -2.92080
C         -0.04460        1.49550       -3.75680
C         -0.06450        0.35840       -2.74570
Au         3.39640        0.05720        0.05190
Br         3.47050        2.36970        0.86490
C          3.15560       -2.06270       -0.14770
C          2.47060       -2.78820        0.74380
P          5.85640        0.05720        0.05190
N          6.97460        1.50280        0.15150
C          6.90720        2.46920       -1.03700
C          5.50580        2.99640       -1.34490
C          7.75820        3.77290       -0.84200
C          8.39290        1.16900        0.41560
C          8.66700       -0.26040        0.05550
C         10.22220       -0.44800        0.04240
C          8.07950       -1.13070        1.13850
N          6.60630       -0.88210        1.40730
C          5.98580       -2.15760        1.78660
C          6.79590       -3.02070        2.82520
C          4.65850       -1.90750        2.49930
N          6.57560       -0.50380       -1.49420
C          5.96130       -1.62740       -2.20070
C          4.58170       -1.19490       -2.75890
C          6.73710       -2.10810       -3.46320
C          8.09160       -0.66930       -1.33590
H         -0.04940       -2.04410        0.83110
H         -2.10520       -0.55620       -0.82810
H         -2.21040       -1.07620        0.88710
H         -3.27050       -2.70760       -0.95280
H         -1.99160       -3.47160        0.07860
H         -1.54830       -2.10680       -2.61970
H         -1.25760       -3.83360       -2.32500
H          0.86520       -2.17280       -1.97080
H          0.46590       -3.38270       -0.77080
H         -0.75640        0.46920        1.70770
H          1.88370       -0.32250        2.96800
H          0.32540       -1.25510        2.96900
H          0.68500        0.29450        5.09840
H         -0.79440        0.69340        4.13590
H          1.98890        1.90690        3.74570
H          0.56280        2.85310        4.29780
H          1.10410        2.77550        1.65040
H         -0.53770        2.53440        2.14240
H         -0.88700        1.18500       -0.98360
H          1.62270        2.49180       -1.96370
H          0.34780        3.17000       -0.85470
H         -0.09280        3.67320       -3.46270
H         -1.40390        2.73890       -2.64500
H          0.99970        1.59300       -4.12880
H         -0.70620        1.33110       -4.63650
H          0.67920       -0.38620       -3.07390
H         -1.08960       -0.06010       -2.75510
H          3.53430       -2.63070       -0.98680
H          2.03770       -2.32110        1.61530
H          2.34090       -3.85950        0.61990
H          7.25420        1.96430       -1.96040
H          5.18450        3.67420       -0.52810
H          4.79070        2.17820       -1.55250
H          5.51820        3.63780       -2.25320
H          7.48420        4.28030        0.10770
H          7.58120        4.48780       -1.67680
H          8.85540        3.64400       -0.86340
H          8.63530        1.39600        1.46790
H          9.08730        1.76150       -0.18770
H         10.66330       -0.13970        1.02000
H         10.67870        0.18660       -0.74090
H         10.50170       -1.49820       -0.15990
H          8.61050       -0.95480        2.10960
H          8.28270       -2.16890        0.79780
H          5.84120       -2.77370        0.86380
H          6.88420       -2.47450        3.78800
H          7.82900       -3.29050        2.52060
H          6.28920       -3.98630        3.00520
H          4.80860       -1.45330        3.49260
H          4.14850       -2.88560        2.63120
H          4.06190       -1.17890        1.93850
H          5.85080       -2.49060       -1.49960
H          4.69470       -0.45090       -3.57220
H          3.96290       -0.69270       -2.00530
H          4.04480       -2.08300       -3.15990
H          6.80180       -1.28750       -4.21030
H          6.21630       -2.97010       -3.93230
H          7.76680       -2.46060       -3.27790
H          8.57350       -0.07360       -2.12580
H          8.39370       -1.71330       -1.44970
