35

C          0.90100       -0.64300       -0.00200
N         -0.28930       -1.07920        0.46480
C         -1.11480       -0.02780        0.35450
C         -0.41690        1.00910       -0.20680
O          0.81920        0.60970       -0.38490
Au         2.65840       -1.88140       -0.01350
Br         1.14150       -3.51550        1.17490
C          3.81940       -0.42810       -1.04840
C          3.41190        0.65080       -1.71940
N          4.37500       -3.09110       -0.02470
C          4.38510       -4.38900        0.07910
C          3.22340       -5.30490       -0.11950
C          2.20380       -4.97170       -1.04170
C          1.11900       -5.83350       -1.25100
C          1.05830       -7.05510       -0.57980
C          2.09260       -7.42780        0.28220
C          3.17530       -6.56600        0.50290
N          5.67640       -4.93920        0.07340
C          6.61870       -3.91120       -0.20910
C          5.75180       -2.64810       -0.23480
H         -2.15170       -0.02500        0.66280
H         -0.80060        1.98880       -0.45660
H          4.87620       -0.52410       -1.12650
H          2.39140        0.89710       -1.89090
H          4.15190        1.27350       -2.21880
H          2.23170       -4.02950       -1.57640
H          0.32170       -5.55070       -1.92750
H          0.21520       -7.71740       -0.73590
H          2.05190       -8.38640        0.78300
H          3.96380       -6.87900        1.17380
H          5.90310       -5.94470        0.07230
H          7.04700       -4.11420       -1.21890
H          7.42670       -3.86750        0.54880
H          5.90680       -2.22110       -1.24260
H          6.04700       -1.95420        0.58130
