46

P          1.05650        0.04380        0.06990
N          0.20270        0.08510       -1.48350
C         -1.24620        0.19170       -1.42900
C          0.80940        1.14150       -2.32080
O          0.60400       -1.55610        0.43500
C          0.83030       -1.76450        1.80200
O          0.62630        1.64440        0.50110
C          0.59950        1.78970        1.90140
Au         3.51650        0.04380        0.06990
Br         3.51650       -2.13260       -1.33420
C          3.51650        1.85050        1.23550
C          3.51730        3.06900        0.70010
N          5.61650        0.04380        0.06990
C          6.46930       -0.82370       -0.51040
N          7.75850       -0.53110       -0.21870
C          8.95130       -1.24600       -0.64170
C          8.86600       -2.33270       -1.54680
C         10.01450       -3.03610       -1.92570
C         11.26360       -2.67570       -1.41520
C         11.36490       -1.60980       -0.52310
C         10.22290       -0.90080       -0.14100
C          7.71000        0.56990        0.56010
C          6.39660        0.92520        0.72860
H         -1.66370       -0.63070       -0.81640
H         -1.64230        0.06460       -2.46300
H         -1.56510        1.18180       -1.04530
H          1.91820        1.03630       -2.34630
H          0.56980        2.15700       -1.93600
H          0.45390        1.06630       -3.36920
H          0.49790       -2.79270        2.05260
H          0.21820       -1.07840        2.42730
H          1.91470       -1.70200        2.04180
H          0.99130        2.80240        2.13940
H          1.25440        1.08000        2.45250
H         -0.43880        1.72400        2.27940
H          3.53860        1.74650        2.31550
H          3.50670        3.20860       -0.37290
H          3.53050        3.93520        1.35710
H          6.16080       -1.66000       -1.11370
H          7.92490       -2.64260       -1.96740
H          9.93590       -3.85980       -2.62270
H         12.14700       -3.22290       -1.70600
H         12.33010       -1.33150       -0.12070
H         10.35070       -0.08620        0.55520
H          8.55320        1.08590        0.99340
H          6.05440        1.75120        1.33030
