89

P          0.95020       -0.07600       -0.04180
C         -0.19550       -1.12270        1.07360
C          0.02310       -2.62390        0.81870
C         -0.38310       -3.34620        2.08950
C         -0.07920       -2.39230        3.22850
C          0.18640       -1.04130        2.57400
C          0.44420        1.64580        0.60300
C          0.75680        2.04300        2.04950
C          0.40840        3.52630        2.07630
C          1.12200        4.02760        0.85810
C          0.95450        2.88670       -0.15560
C          0.29870       -0.80640       -1.66250
C         -1.21170       -0.54310       -1.84850
C         -1.45180       -0.80610       -3.32900
C         -0.27700       -0.08920       -3.95210
C          0.90290       -0.38200       -3.01940
Au         3.41020       -0.07600       -0.04180
Br         3.41020        1.69190       -1.93470
C          3.41020       -1.54350        1.52940
C          3.22490       -2.86340        1.41130
C          5.56020       -0.07600       -0.04180
N          6.41540       -1.17870        0.14910
C          6.07190       -2.62100        0.12990
C          6.96850       -3.64320        0.83940
C          6.28700       -5.00800        0.95010
C          7.16840       -5.95750        1.75630
C          7.69550       -0.71910        0.06330
C          7.67290        0.63490       -0.07710
C          8.90820        1.35220       -0.10060
C         10.12760        0.67000       -0.05780
C         10.14210       -0.70500        0.01320
C          8.94380       -1.40680        0.07400
N          6.36600        1.06950       -0.16990
C          5.94710        2.50080       -0.05560
C          6.84090        3.55750       -0.73710
C          7.21590        3.14860       -2.17640
C          8.33500        4.00800       -2.75500
H         -1.28070       -0.92020        0.97680
H          1.06750       -2.77200        0.67690
H         -0.44760       -3.06580       -0.07780
H          0.07480       -4.35360        2.22520
H         -1.48320       -3.45470        2.03770
H          0.81010       -2.67670        3.83930
H         -0.96280       -2.36590        3.90400
H          1.27370       -0.87630        2.64230
H         -0.31680       -0.28630        3.18600
H         -0.66930        1.70210        0.53020
H          1.83370        1.87440        2.26080
H          0.12990        1.59230        2.81010
H          0.71910        4.04400        3.00960
H         -0.68610        3.66320        1.92500
H          2.20070        4.07030        1.17330
H          0.86410        5.04000        0.49540
H          1.97190        2.75750       -0.39960
H          0.35320        3.11900       -1.06180
H          0.43880       -1.90640       -1.66770
H         -1.41460        0.53450       -1.65580
H         -1.88000       -1.15230       -1.20490
H         -2.42980       -0.41890       -3.69850
H         -1.38330       -1.89380       -3.53910
H         -0.49650        1.00070       -3.87490
H         -0.08900       -0.31900       -5.02410
H          1.50170        0.51760       -3.02870
H          1.50400       -1.23600       -3.41050
H          3.54380       -1.14730        2.53070
H          3.12200       -3.31040        0.42570
H          3.24440       -3.50380        2.28720
H          5.73580       -2.93640       -0.88620
H          5.32530       -2.66400        0.80580
H          7.20610       -3.25470        1.86030
H          7.86100       -3.89780        0.26780
H          6.14110       -5.41440       -0.07570
H          5.29620       -4.93030        1.44510
H          8.18090       -6.02730        1.30230
H          6.71540       -6.96770        1.77860
H          7.26870       -5.58020        2.79720
H          9.05550        2.38990       -0.17970
H         11.06410        1.21380       -0.09520
H         11.08640       -1.23840        0.03200
H          9.10300       -2.43810        0.13150
H          5.83410        2.75760        1.01930
H          4.96320        2.68210       -0.41490
H          7.69890        3.76860       -0.08490
H          6.34120        4.54830       -0.73700
H          6.30990        3.19780       -2.81350
H          7.58960        2.10890       -2.22060
H          8.04080        5.07430       -2.79410
H          8.56960        3.64950       -3.78050
H          9.25810        3.89970       -2.14180
