77

P          1.06060        0.03210       -0.07280
C          0.73830        0.69990       -1.90770
C         -0.56580        0.73750       -2.80590
C         -1.57840        1.76790       -2.32150
C         -0.93930        3.17040       -2.42170
C          0.45900        3.26710       -1.77480
C          1.38130        2.09010       -2.16210
C          0.44970       -1.76920        0.29360
C         -1.09880       -1.96300        0.32500
C         -1.70360       -1.82020       -1.05590
C         -1.07840       -2.82400       -2.06040
C          0.45670       -2.87000       -2.00160
C          0.94060       -2.95550       -0.53660
C          0.52080        1.43500        1.17120
C         -0.91990        2.09130        1.26560
C         -1.99240        1.36900        2.10020
C         -1.47790        1.08970        3.50540
C         -0.15050        0.34660        3.45370
C          0.88320        1.14800        2.66580
Au         3.52060        0.03210       -0.07280
Br         3.52060       -1.80450       -1.89890
C          3.52060        1.55670        1.44320
C          4.11990        1.32700        2.61370
P          5.98060        0.03210       -0.07280
O          6.95470       -1.38760       -0.26530
C          8.32600       -1.17010       -0.29700
C          8.65690        0.29490       -0.23650
C         10.18650        0.47670       -0.26930
C          7.87890        0.93380       -1.46000
O          6.51730        0.45050       -1.62550
O          6.68730        0.75730        1.28940
C          8.09450        0.83470        1.11890
H          1.38770        0.02400       -2.48470
H         -1.01710       -0.23410       -3.05650
H         -0.29240        1.04690       -3.84140
H         -1.92090        1.45990       -1.32820
H         -2.49300        1.76200       -2.95400
H         -1.61310        3.94210       -1.98620
H         -0.82620        3.39660       -3.50290
H          0.34140        3.33110       -0.70120
H          0.93190        4.22520       -2.07800
H          2.38100        2.15940       -1.69260
H          1.55470        2.19050       -3.26290
H          0.78280       -1.96570        1.33250
H         -1.56320       -1.26780        1.00400
H         -1.37410       -2.97370        0.69620
H         -1.52760       -0.78630       -1.24810
H         -2.80690       -1.93360       -1.07680
H         -1.39910       -2.61640       -3.10710
H         -1.45040       -3.83220       -1.79480
H          0.85470       -1.97710       -2.49610
H          0.82300       -3.74480       -2.58740
H          2.01660       -3.09560       -0.40470
H          0.53890       -3.90510       -0.11900
H          1.15010        2.25640        0.83750
H         -1.33670        2.41720        0.31630
H         -0.78090        3.05830        1.80140
H         -2.33570        0.45510        1.62100
H         -2.90730        1.99940        2.19080
H         -2.21760        0.49690        4.09120
H         -1.33080        2.05500        4.04590
H         -0.26900       -0.65710        3.00800
H          0.22820        0.23180        4.49680
H          1.80660        0.58580        2.78200
H          0.98940        2.13740        3.18140
H          3.13280        2.54720        1.25310
H          4.55990        0.35690        2.81570
H          4.16990        2.10580        3.36750
H          8.72580       -1.61810       -1.24270
H          8.79510       -1.73670        0.55020
H         10.61300        0.05750       -1.20460
H         10.65040       -0.07440        0.58330
H         10.46280        1.54490       -0.18050
H          8.42430        0.64870       -2.38340
H          7.90620        2.04080       -1.38010
H          8.56340        0.26500        1.95630
H          8.38940        1.89600        1.23580
