74

P          1.02090       -0.05590        0.08030
C         -0.22490       -0.89980        1.40250
C         -0.04970       -2.44810        1.75760
C          1.15870       -2.81660        2.59720
C          1.26410       -1.96050        3.88890
C          0.89350       -0.45390        3.70970
C         -0.37320       -0.33690        2.87400
C          0.36690        1.77250        0.21620
C          0.33870        2.68560        1.51030
C          1.69580        3.20270        1.97270
C          2.29370        4.05840        0.86660
C          2.35540        3.22840       -0.38590
C          0.97020        2.69240       -0.85140
C          0.31450       -1.10560       -1.43980
C          0.94980       -0.80640       -2.80970
C          2.18520       -1.69630       -3.08090
C          1.81290       -3.18450       -3.13010
C          1.15780       -3.59820       -1.80900
C         -0.03330       -2.65550       -1.53360
Au         3.48090       -0.05590        0.08030
Br         3.48090        1.22920       -2.16850
C          3.48090       -1.12260        1.94700
C          4.28120       -2.18840        2.07640
C          5.63090       -0.05590        0.08030
N          6.44120       -0.49490       -0.90560
C          6.08520       -1.22190       -2.11400
C          7.70370       -0.31470       -0.46330
Cl         9.17180       -0.77600       -1.31440
C          7.64310        0.28830        0.77710
Cl         9.01960        0.80780        1.74180
N          6.36080        0.42250        1.12160
C          5.82180        1.18350        2.25740
H         -1.22910       -0.78890        0.95450
H          0.01050       -3.15320        0.95310
H         -0.93110       -2.77860        2.34980
H          1.95930       -2.79980        1.87330
H          1.15530       -3.89040        2.89130
H          2.25740       -2.10200        4.38270
H          0.52090       -2.38010        4.58680
H          1.58380        0.24350        3.22080
H          0.77440       -0.03350        4.73360
H         -0.80190        0.63800        2.93800
H         -1.15170       -0.89890        3.43360
H         -0.70850        1.63070       -0.03710
H         -0.17540        2.33750        2.37850
H         -0.27420        3.58570        1.26320
H          2.35090        2.34170        2.22720
H          1.58460        3.84220        2.87470
H          3.32200        4.37310        1.15060
H          1.68050        4.96390        0.67540
H          3.00550        2.39350       -0.06800
H          2.81680        3.82330       -1.20090
H          0.98780        2.16420       -1.81970
H          0.31070        3.57300       -1.02020
H         -0.70640       -0.67440       -1.46670
H          1.14640        0.26190       -2.91280
H          0.21260       -1.04200       -3.61150
H          2.91450       -1.55420       -2.27150
H          2.63290       -1.42150       -4.05980
H          2.70730       -3.81670       -3.33570
H          1.09930       -3.35310       -3.97110
H          1.89050       -3.57650       -0.97630
H          0.80240       -4.65140       -1.92850
H         -0.74620       -3.03850       -0.80110
H         -0.69020       -2.79240       -2.42410
H          3.23860       -0.69620        2.87650
H          4.78330       -2.62150        1.22140
H          4.46050       -2.60730        3.06510
H          4.99930       -1.32990       -2.18250
H          6.50430       -2.25110       -2.03130
H          6.49720       -0.73100       -3.01370
H          6.63210        1.63700        2.85110
H          5.21600        0.53500        2.92580
H          5.18690        2.01570        1.87460
