84

P          0.93230       -0.06130        0.04080
C          0.27370        1.47600        0.74970
C         -1.08040        1.83000        0.85310
C         -1.43310        3.07600        1.40600
C         -0.44520        3.96240        1.86070
C          0.89330        3.60170        1.77890
C          1.24840        2.37000        1.23730
C          0.44330        0.22870       -1.69310
C         -0.20570        1.37950       -2.19620
C         -0.69470        1.39440       -3.51180
C         -0.54490        0.27800       -4.33650
C          0.11150       -0.85480       -3.85760
C          0.60670       -0.87430       -2.55220
C          0.24100       -1.42880        1.00990
C         -0.56530       -2.37660        0.34790
C         -1.06110       -3.49260        1.02050
C         -0.75650       -3.68400        2.36870
C          0.02890       -2.74570        3.04560
C          0.51860       -1.61380        2.37630
Au         3.39230       -0.06130        0.04080
Br         3.39230        2.12470       -1.34840
C          3.39230       -1.87590        1.19390
C          4.32500       -2.34170        2.02240
P          5.85230       -0.06130        0.04080
C          6.56630        1.08390       -1.16720
C          6.93980        2.41050       -0.88910
C          7.12420        3.32080       -1.94540
C          6.95290        2.91570       -3.28110
C          7.03170        3.89890       -4.41690
C          6.64450        1.58040       -3.55520
C          6.44180        0.68060       -2.50870
C          6.13080        0.65780        1.68590
C          6.91380       -0.05080        2.61240
C          7.12200        0.43200        3.90660
C          6.55160        1.64570        4.29450
C          6.74710        2.15520        5.69350
C          5.79160        2.37580        3.36970
C          5.56750        1.87960        2.07580
C          6.59040       -1.72780       -0.13610
C          5.81400       -2.86840       -0.41210
C          6.38110       -4.14590       -0.39220
C          7.75090       -4.30730       -0.15330
C          8.35740       -5.67860       -0.05500
C          8.55260       -3.16900        0.01240
C          7.97640       -1.89170        0.02270
H         -1.85090        1.16020        0.49940
H         -2.47150        3.36740        1.48130
H         -0.71460        4.92470        2.27910
H          1.66750        4.28110        2.13390
H          2.29980        2.11720        1.19490
H         -0.37990        2.25440       -1.59670
H         -1.21380        2.26710       -3.88650
H         -0.94720        0.28310       -5.34120
H          0.21430       -1.72820       -4.48870
H          1.07530       -1.78240       -2.19320
H         -0.80500       -2.26460       -0.70180
H         -1.66860       -4.22080        0.49260
H         -1.12540       -4.56310        2.88340
H          0.26830       -2.90650        4.08970
H          1.14580       -0.90920        2.90500
H          2.50740       -2.48220        1.13930
H          5.23330       -1.82350        2.21280
H          4.15720       -3.27310        2.55400
H          7.00110        2.78570        0.11720
H          7.34480        4.35620       -1.71880
H          7.21130        4.93310       -4.05490
H          6.06170        3.90180       -4.96400
H          7.83600        3.61450       -5.12500
H          6.49690        1.25010       -4.57760
H          6.11490       -0.32340       -2.75240
H          7.37540       -0.99480        2.36710
H          7.71680       -0.15070        4.59540
H          7.33810        1.44350        6.30970
H          5.75460        2.28260        6.17510
H          7.27640        3.13010        5.67480
H          5.35220        3.32050        3.65920
H          4.96760        2.45130        1.38500
H          4.75870       -2.79370       -0.60450
H          5.74330       -5.00960       -0.54180
H          7.58870       -6.47560       -0.15480
H          8.82960       -5.79410        0.94560
H          9.12870       -5.82390       -0.83750
H          9.61860       -3.27420        0.16870
H          8.60960       -1.03050        0.19110
