13

P          0.93260        0.01640       -0.07200
F         -0.74050       -0.01160       -0.02630
F          0.93660        1.32050        0.97760
F          0.87300        0.23260       -1.73020
Cu         3.39260        0.01640       -0.07200
Br         3.45580        1.68660       -1.90710
C          3.40470       -1.32820        1.49390
C          3.57750       -0.89000        2.73760
C          5.54260        0.01640       -0.07200
O          6.76070        0.01640       -0.07200
H          3.28370       -2.39090        1.29700
H          3.70480        0.17300        2.92100
H          3.59950       -1.58540        3.56950
