19

P          1.06840       -0.00570        0.07270
Cl        -0.56730       -0.67800        1.15550
Cl         1.16980        1.61690        1.36110
Cl        -0.23730        0.14080       -1.53260
Cu         3.52840       -0.00570        0.07270
Br         3.41120        1.18990       -2.10100
C          3.52720       -0.89010        1.94920
C          3.02020       -2.10580        2.16630
N          5.62840       -0.00570        0.07270
C          6.43490        0.52800       -0.87280
O          7.70770        0.31030       -0.60030
C          7.74870       -0.35150        0.53580
C          6.45940       -0.56570        0.98100
H          3.97400       -0.34200        2.76900
H          2.57630       -2.66080        1.36940
H          3.04040       -2.52410        3.17150
H          6.11320        1.05520       -1.74730
H          8.65180       -0.69560        1.03020
H          6.15520       -1.09820        1.86170
