26

P          0.99110        0.01400       -0.09860
Cl        -0.38740       -1.39460        0.54740
Cl         1.15900        0.62200        1.87790
Cl        -0.77570        0.70310       -0.93710
Cu         3.45110        0.01400       -0.09860
Br         3.18020        2.30850       -1.04130
C          3.41860       -1.82980        0.87340
C          2.89620       -2.93380        0.36410
N          5.55110        0.01400       -0.09860
C          6.21380        1.16510       -0.43490
C          7.61700        1.24040       -0.43920
O          8.28990        2.39690       -0.68960
C          7.71900        3.65070       -0.79740
C          8.34560        0.09130       -0.15410
C          7.67920       -1.08530        0.17440
C          6.28430       -1.10470        0.22250
H          3.84950       -1.85840        1.87340
H          2.45000       -2.93040       -0.62440
H          2.91450       -3.84690        0.95140
H          5.67150        2.05310       -0.65840
H          8.51920        4.40480       -0.93720
H          7.17010        3.90080        0.13810
H          7.02950        3.69490       -1.66570
H          9.42750        0.11210       -0.17080
H          8.24260       -1.98280        0.39690
H          5.81490       -2.03690        0.47300
