63

P          0.93650       -0.02460        0.07330
C          0.16790       -0.70730       -1.45710
C         -1.12440       -1.26980       -1.70670
C         -2.27290       -1.33080       -0.72000
C         -1.39000       -1.87640       -2.95170
C         -0.42140       -1.94700       -3.95240
C          0.83460       -1.41820       -3.72630
C          1.12220       -0.82500       -2.49860
C          0.39290       -1.08470        1.50190
C          0.01620       -2.47280        1.56110
C          0.00550       -3.45410        0.42590
C         -0.37870       -3.03390        2.80050
C         -0.39690       -2.28110        3.96790
C         -0.02560       -0.94800        3.92830
C          0.35300       -0.36150        2.72120
C          0.20240        1.66940        0.04650
C          0.78700        2.74910        0.78800
C          2.16850        2.72670        1.37950
C          0.03580        3.91410        1.05150
C         -1.27630        4.04760        0.60110
C         -1.84770        3.02010       -0.13370
C         -1.13210        1.86110       -0.40460
Cu         3.39650       -0.02460        0.07330
Br         3.35690        1.83880       -1.61910
C          3.26830       -1.40620        1.64090
C          3.71240       -2.65440        1.55690
N          5.49650       -0.02460        0.07330
C          6.10150        0.34420       -1.22810
C          5.81290        1.13000        0.94660
C          6.15090       -1.18550        0.70660
H         -2.06390       -0.80200        0.22380
H         -2.51620       -2.38760       -0.49100
H         -3.18000       -0.89290       -1.19620
H         -2.35320       -2.33610       -3.15940
H         -0.63240       -2.42320       -4.89800
H          1.59980       -1.47510       -4.48760
H          2.12910       -0.46710       -2.35910
H          0.34470       -3.03990       -0.52930
H         -1.01860       -3.87280        0.31690
H          0.67850       -4.30190        0.67070
H         -0.67140       -4.07660        2.86870
H         -0.69420       -2.73580        4.90670
H         -0.02980       -0.36420        4.84160
H          0.63640        0.68060        2.74980
H          2.71600        1.79880        1.16540
H          2.12140        2.85210        2.48050
H          2.74420        3.57710        0.95090
H          0.45940        4.71890        1.64130
H         -1.85060        4.92550        0.86250
H         -2.88080        3.10870       -0.45350
H         -1.66320        1.09870       -0.92180
H          2.65960       -1.19990        2.50310
H          4.13350       -3.01990        0.63440
H          3.51170       -3.35190        2.36250
H          5.91200        1.38450       -1.55220
H          5.72780       -0.35160       -2.00920
H          7.21000        0.24420       -1.19830
H          5.36290        2.06930        0.56210
H          6.91370        1.28050        1.05760
H          5.38130        0.97570        1.96000
H          5.92630       -2.09430        0.11870
H          5.86670       -1.30860        1.77270
H          7.25780       -1.09670        0.68490
