74

P          0.91060        0.04430       -0.00660
C          0.18720       -1.34130       -0.92720
C         -1.17530       -1.63770       -1.05560
C         -1.57410       -2.76310       -1.81520
C         -0.61990       -3.58330       -2.42920
Cl        -1.10780       -4.99150       -3.36050
C          0.73510       -3.28540       -2.31130
C          1.13090       -2.17410       -1.58470
C          0.28350       -0.54690        1.62080
C          0.51100       -1.79520        2.23700
C         -0.00380       -2.07440        3.51260
C         -0.78860       -1.13380        4.18040
Cl        -1.44110       -1.48700        5.77120
C         -1.06550        0.08560        3.57030
C         -0.53300        0.37370        2.31250
C          0.36130        1.67210       -0.58610
C         -0.44430        1.85030       -1.72120
C         -0.86460        3.13990       -2.08720
C         -0.48260        4.25280       -1.32660
Cl        -0.99360        5.86730       -1.78910
C          0.30230        4.07770       -0.18730
C          0.70870        2.79700        0.18510
Cu         3.37060        0.04430       -0.00660
Br         3.37060       -2.39950        0.85130
C          3.37060        2.07290       -0.71870
C          3.14290        2.23840       -2.02610
C          5.52060        0.04430       -0.00660
N          6.33590       -1.17080       -0.04850
C          6.51610       -2.74070       -0.09750
C          6.85990       -3.04780       -1.58420
C          7.58850       -3.16560        0.99830
C          5.51120       -3.92360        0.16000
C          7.57060       -0.66870       -0.20740
C          7.62700        0.62890       -0.14720
N          6.41160        1.16970       -0.00170
C          6.41230        2.67340        0.29570
C          7.85710        3.25120        0.64350
C          6.05810        3.56610       -0.91900
C          5.64270        2.93420        1.61500
H         -1.91830       -1.01240       -0.58720
H         -2.62080       -2.99500       -1.92580
H          1.48610       -3.91050       -2.78370
H          2.18520       -1.95270       -1.52460
H          1.06080       -2.57550        1.77190
H          0.20290       -3.02800        3.98220
H         -1.68960        0.81650        4.07030
H         -0.77250        1.33450        1.88240
H         -0.75690        1.00370       -2.31540
H         -1.48950        3.27800       -2.95970
H          0.59610        4.92990        0.41430
H          1.30650        2.68010        1.08110
H          3.42710        2.94510       -0.09130
H          3.05500        1.37420       -2.67420
H          3.07520        3.23580       -2.45090
H          7.69950       -2.46560       -1.99610
H          5.95750       -2.75880       -2.17970
H          7.05540       -4.12000       -1.79590
H          8.60000       -2.73880        0.95050
H          7.79390       -4.25840        1.03780
H          7.18500       -2.87640        1.99760
H          4.67700       -3.99020       -0.57210
H          5.21870       -4.02040        1.23540
H          5.98650       -4.92070        0.01020
H          8.50270       -1.19830       -0.33920
H          8.59010        1.11120       -0.19820
H          8.56030        3.20930       -0.22440
H          8.33170        2.72940        1.49950
H          7.82180        4.33440        0.89530
H          6.85090        3.49730       -1.69700
H          5.95980        4.62640       -0.60510
H          5.19210        3.32130       -1.47910
H          6.04570        2.25100        2.39730
H          4.56860        2.75360        1.58740
H          5.80370        3.97100        1.98330
