108

P          0.95140        0.07720        0.04110
C          0.41300       -1.59720       -0.98180
C         -0.37290       -1.73570       -2.21630
C         -0.76630       -0.67030       -3.15730
C         -0.81310       -2.99340       -2.74250
C         -0.46050       -4.20200       -2.19540
C         -0.95650       -5.53030       -2.75540
C          0.42740       -4.16690       -1.15490
C          0.89600       -2.94620       -0.58010
C          1.93340       -3.25920        0.45810
C          0.07800       -0.02700        1.83690
C         -0.22810       -1.22730        2.63990
C         -0.31720       -2.64490        2.20390
C         -0.56760       -1.16730        4.01040
C         -0.78350        0.01020        4.66760
C         -1.14910        0.01520        6.13380
C         -0.74670        1.16560        3.92130
C         -0.36360        1.18140        2.55130
C         -0.58660        2.53950        1.93940
C          0.58840        1.76030       -0.77720
C         -0.68320        2.12520       -1.38110
C         -1.94010        1.29930       -1.39920
C         -0.90990        3.39990       -1.92480
C         -0.00040        4.42530       -1.79000
C         -0.32560        5.78710       -2.36010
C          1.15120        4.18750       -1.04820
C          1.45180        2.89980       -0.52640
C          2.64230        2.85000        0.40490
Cu         3.41140        0.07720        0.04110
Br         3.28920        0.13920       -2.42870
C          3.59040        0.09560        2.07920
C          2.84440       -0.50190        3.00700
P          5.87140        0.07720        0.04110
C          6.76720        1.60890        0.53910
C          7.61080        1.76800        1.66150
C          8.12410        3.02380        2.00250
C          7.83540        4.14250        1.22380
C          7.03300        4.00860        0.09450
C          6.49850        2.75980       -0.24060
C          6.38920       -0.93010        1.57040
C          7.09250       -2.10120        1.26860
C          7.58170       -2.99020        2.22130
C          7.35110       -2.75170        3.56370
C          6.67350       -1.60280        3.93960
C          6.22890       -0.69250        2.97750
C          6.68010       -0.15460       -1.69780
C          8.26130       -0.23810       -1.75750
C          8.92590       -1.65120       -1.60390
C          8.20580       -2.76930       -2.39590
C          6.68070       -2.72440       -2.25670
C          6.19100       -1.32980       -2.61750
H         -0.26440        0.26740       -2.92840
H         -1.87620       -0.66070       -3.23690
H         -0.39150       -0.93070       -4.17160
H         -1.43800       -3.03800       -3.63210
H         -1.62000       -5.40100       -3.63890
H         -1.53790       -6.09210       -1.98940
H         -0.10420       -6.17200       -3.06800
H          0.75750       -5.13610       -0.78370
H          1.68760       -4.19820        1.02160
H          2.07200       -2.44970        1.14600
H          2.89580       -3.46420       -0.05030
H         -0.61070       -2.71000        1.16550
H         -1.26810       -3.06970        2.60450
H          0.47180       -3.28630        2.64950
H         -0.70360       -2.08010        4.58730
H         -1.13820       -1.01060        6.56740
H         -2.16870        0.42900        6.27250
H         -0.42410        0.62520        6.71410
H         -1.03080        2.07870        4.43660
H         -1.37250        3.08460        2.51630
H         -1.15500        2.44200        1.00950
H          0.27820        3.21760        1.95400
H         -1.83330        0.32960       -0.88140
H         -2.31480        1.21550       -2.43850
H         -2.74660        1.86250       -0.88080
H         -1.85470        3.61960       -2.41350
H         -1.27860        5.77260       -2.93730
H          0.47440        6.11480       -3.05480
H         -0.44320        6.53840       -1.55090
H          1.80250        5.03310       -0.85110
H          3.11550        3.84960        0.53790
H          3.42500        2.17760        0.04930
H          2.31070        2.55200        1.42360
H          4.35560        0.72230        2.31650
H          2.11500       -1.20160        2.73590
H          3.04050       -0.38180        4.06130
H          7.88100        0.96370        2.31240
H          8.74090        3.13040        2.88480
H          8.23140        5.11210        1.49940
H          6.80980        4.87990       -0.51080
H          5.85100        2.70650       -1.10660
H          7.27890       -2.34230        0.27760
H          8.13550       -3.86690        1.90880
H          7.71140       -3.44440        4.31050
H          6.50320       -1.39920        4.98780
H          5.81220        0.17400        3.43600
H          6.38940        0.77810       -2.21970
H          8.75520        0.48770       -1.07770
H          8.53340        0.06750       -2.79060
H          9.04640       -1.93220       -0.55160
H          9.98060       -1.61740       -1.96240
H          8.58650       -3.77580       -2.10590
H          8.42620       -2.63850       -3.47770
H          6.26610       -3.02530       -1.28460
H          6.24840       -3.46210       -2.96850
H          5.12390       -1.43560       -2.69720
H          6.55650       -1.11940       -3.65090
