56

P          1.01810        0.05840       -0.07910
C          0.22960        1.58730        0.65530
C         -1.29940        1.71680        0.73850
C          0.80170        1.77420        2.07220
C          0.65270        0.01890       -1.89860
C          1.24610       -1.26490       -2.48580
C         -0.85220        0.01160       -2.20640
C          0.31080       -1.22680        1.00660
Cu         3.47810        0.05840       -0.07910
Br         3.34700        2.14320       -1.46490
C          3.45280       -1.53780        1.24550
C          4.04800       -1.35790        2.43030
C          5.62810        0.05840       -0.07910
N          6.38680       -0.97780        0.07050
C          5.97860       -2.36750        0.05080
C          7.78610       -0.63040       -0.01150
C          7.77190        0.82240       -0.49310
N          6.39830        1.23010       -0.32790
C          6.06130        2.53150        0.18830
C          6.87500        3.63990       -0.11030
C          6.55420        4.91100        0.37480
C          5.41820        5.09770        1.16580
C          4.60830        4.00580        1.48480
C          4.93720        2.73250        1.01450
H          0.60740        2.44410        0.05590
H         -1.75740        0.89760        1.32310
H         -1.79370        1.81100       -0.23190
H         -1.54350        2.67660        1.24770
H          0.42860        0.99500        2.76740
H          0.50610        2.76080        2.48830
H          1.91190        1.73660        2.05670
H          1.10330        0.88620       -2.41600
H          0.77800       -2.16100       -2.02090
H          2.34190       -1.30160       -2.32440
H          1.05400       -1.30680       -3.58100
H         -1.37790       -0.78910       -1.64050
H         -1.03170       -0.15150       -3.29010
H         -1.30320        0.98900       -2.00880
H         -0.79730       -1.16800        0.92790
H          0.60630       -1.11120        2.06370
H          0.60180       -2.22930        0.63790
H          2.99030       -2.48650        1.00530
H          4.51690       -0.40330        2.65970
H          4.08960       -2.15030        3.16970
H          4.94650       -2.49980       -0.31350
H          6.19100       -2.86790        1.01620
H          6.54890       -2.89160       -0.74800
H          8.33960       -1.25190       -0.75200
H          8.22880       -0.74200        0.99960
H          7.99080        0.86540       -1.58410
H          8.51260        1.43160        0.07300
H          7.75690        3.53160       -0.72790
H          7.18560        5.75780        0.13630
H          5.16750        6.08210        1.53440
H          3.72870        4.14660        2.10010
H          4.28860        1.90530        1.28100
