22

P          1.08440       -0.04410        0.03050
Cl        -0.57690       -0.33260       -1.17630
Cl         0.96760       -2.02710        0.64400
Cl        -0.03290        1.27530        1.17890
Cu         3.54440       -0.04410        0.03050
Br         3.41970       -2.11130       -1.38150
C          3.45560        1.67460        1.19510
C          2.94890        2.82100        0.74480
N          5.64440       -0.04410        0.03050
C          6.33080        1.02690        0.53300
C          7.72960        1.08350        0.48370
C          8.43970        0.00640       -0.03660
Cl        10.19170        0.05720       -0.11380
C          7.75860       -1.10470       -0.50920
C          6.35640       -1.09400       -0.48030
H          3.83910        1.62400        2.20850
H          2.55360        2.88990       -0.26130
H          2.92310        3.68910        1.39670
H          5.85830        1.91170        0.91470
H          8.25300        1.95410        0.82780
H          8.30640       -1.94980       -0.89790
H          5.89000       -1.98950       -0.85760
