30

P          0.90890        0.04000       -0.00980
Cl        -0.44660       -0.73040       -1.37710
Cl         0.82780       -1.74420        1.05540
Cl        -0.79470        1.10640        0.49990
Cu         3.36890        0.04000       -0.00980
Br         3.26370       -2.34720       -0.78940
C          3.24780        2.04230        0.48940
C          3.20450        2.42240        1.76690
N          5.46890        0.04000       -0.00980
C          6.16800        1.20540        0.15050
C          7.56130        1.26010       -0.00570
C          8.31320        0.09630       -0.30680
N          9.74830        0.12870       -0.54790
C         10.52720        1.36780       -0.60450
C         10.55260       -1.06600       -0.79500
C          7.57080       -1.10160       -0.38410
C          6.18270       -1.10330       -0.24640
H          3.22330        2.79390       -0.29850
H          3.23100        1.67440        2.55140
H          3.14560        3.47200        2.02670
H          5.66970        2.14110        0.32380
H          7.99720        2.23810        0.09010
H          9.95590        2.28700       -0.45540
H         11.00310        1.45500       -1.60620
H         11.33010        1.34200        0.16330
H         10.01640       -2.02170       -0.75350
H         11.36690       -1.14080       -0.03960
H         11.01480       -1.00310       -1.80400
H          8.00590       -2.05950       -0.58410
H          5.71700       -2.05780       -0.34610
