63

P          0.90250       -0.01680        0.01430
C         -0.37520       -0.35860       -1.25280
C          0.56220       -1.53160        0.96550
C          0.26980        1.55540        0.60700
C         -0.43360        1.63610        1.81510
C         -0.97750        2.85710        2.22830
C         -0.83120        3.99740        1.43180
C         -0.14800        3.91680        0.21530
C          0.40060        2.69870       -0.19830
Cu         3.36250       -0.01680        0.01430
Br         3.14780        1.11710        2.21180
C          3.45520       -1.01050       -1.89460
C          2.54420       -1.48460       -2.74270
P          5.82250       -0.01680        0.01430
C          6.56000       -1.76330       -0.02900
C          6.18390       -2.59010       -1.27390
C          8.07620       -1.77540        0.15690
C          5.91890       -2.55500        1.14830
C          6.17280        0.67340       -1.66840
C          5.12200        1.25270       -2.41540
C          5.32880        1.79920       -3.68270
C          6.61070        1.85350       -4.21580
C          7.68910        1.39370       -3.45940
C          7.47760        0.81580       -2.19380
C          6.40550        0.76880        1.56670
C          6.05570        0.31500        2.85390
C          6.52710        0.96470        4.00060
C          7.35460        2.08010        3.88710
C          7.70980        2.55160        2.62340
C          7.23960        1.90300        1.47120
H         -1.40960       -0.19100       -0.92160
H         -0.30870       -1.40480       -1.61200
H         -0.14190        0.30540       -2.12150
H         -0.54150       -1.65270        1.06100
H          0.99030       -1.45940        1.98250
H          0.96640       -2.41590        0.43220
H         -0.57250        0.75580        2.42790
H         -1.52080        2.91750        3.16180
H         -1.25560        4.94040        1.75200
H         -0.05180        4.79580       -0.41010
H          0.90850        2.64380       -1.15400
H          4.43120       -1.11980       -2.31920
H          1.49670       -1.51500       -2.54980
H          2.87680       -1.93270       -3.68360
H          6.54800       -2.12570       -2.21050
H          5.09620       -2.78880       -1.30510
H          6.60520       -3.61580       -1.20520
H          8.59230       -1.32490       -0.69900
H          8.43760       -2.82410        0.23520
H          8.35410       -1.24650        1.09230
H          4.80380       -2.51920        1.08600
H          6.23440       -2.19700        2.13660
H          6.21000       -3.62680        1.13890
H          4.11990        1.29610       -2.02160
H          4.49070        2.19280       -4.24530
H          6.76670        2.28290       -5.19910
H          8.69080        1.49470       -3.85890
H          8.34590        0.51470       -1.63990
H          5.39160       -0.51750        2.99710
H          6.24080        0.60670        4.98140
H          7.71280        2.58170        4.77890
H          8.34820        3.42340        2.54160
H          7.53090        2.29460        0.50510
