90

P          1.06240        0.07690        0.01390
C          0.20020        0.90600       -1.35250
C          1.02070        1.27800       -2.44930
C          0.47650        1.84010       -3.61480
C          1.34530        2.20610       -4.79590
C         -0.90610        2.04050       -3.68360
C         -1.72640        1.68080       -2.60680
C         -1.18400        1.10780       -1.44300
C          0.42510       -1.65560        0.00030
C          0.66790       -2.48880        1.11480
C          0.25130       -3.83480        1.12790
C          0.50060       -4.71870        2.32260
C         -0.40160       -4.35810        0.01450
C         -0.67570       -3.54410       -1.08830
C         -0.28870       -2.20690       -1.09410
C          0.52760        1.15650        1.40310
C          0.81870        2.51700        1.58530
C          0.56550        3.15100        2.81580
C          1.06980        4.53760        3.08260
C         -0.10530        2.46230        3.83010
C         -0.51280        1.15110        3.62160
C         -0.18490        0.50400        2.43190
Cu         3.52240        0.07690        0.01390
Br         3.52240        2.66690        0.02530
C          3.52240       -2.07300        0.00440
C          2.85360       -2.59630       -1.02370
C          5.67240        0.07690        0.01390
N          6.51320       -0.65610        0.84540
C          6.27610       -1.27210        2.19030
C          5.46650       -2.53260        2.38330
C          6.03760       -3.70750        1.56840
C          5.11480       -4.92580        1.66820
C          7.77260       -0.32370        0.45520
C          7.70900        0.61590       -0.52490
C          8.86570        1.12190       -1.14770
C         10.10900        0.66960       -0.69870
C         10.18800       -0.24270        0.36230
C          9.01940       -0.74780        0.95700
N          6.42390        0.95930       -0.74420
C          6.06890        1.96990       -1.76710
C          6.21090        1.41880       -3.14660
C          6.01230        0.05220       -3.36000
C          6.33690       -0.52020       -4.58980
C          6.83330        0.28690       -5.61240
C          6.95840        1.66720       -5.43360
C          6.63960        2.24270       -4.20220
H          2.09120        1.10570       -2.39900
H          2.41990        1.97860       -4.61980
H          1.25550        3.29140       -5.02060
H          1.02340        1.63900       -5.69630
H         -1.34420        2.46510       -4.58070
H         -2.79550        1.83310       -2.68330
H         -1.83690        0.81300       -0.63460
H          1.20190       -2.09300        1.97070
H          0.91300       -4.14790        3.17700
H          1.20830       -5.52920        2.05450
H         -0.46030       -5.17750        2.64990
H         -0.71280       -5.39910        0.00270
H         -1.19360       -3.96830       -1.93850
H         -0.49710       -1.60900       -1.97380
H          1.27110        3.09230        0.82380
H          1.61040        4.95430        2.20670
H          1.80010        4.48000        3.92230
H          0.24310        5.21490        3.36960
H         -0.30900        2.93880        4.78110
H         -1.04420        0.61740        4.39970
H         -0.47980       -0.52770        2.34240
H          4.19970       -2.78500        0.31130
H          2.29060       -1.94340       -1.67970
H          2.91870       -3.64980       -1.27800
H          5.82380       -0.48600        2.83610
H          7.23750       -1.48870        2.68710
H          4.40540       -2.27540        2.24520
H          5.48990       -2.81130        3.45880
H          7.04890       -3.95860        1.93920
H          6.16190       -3.42720        0.49760
H          5.02330       -5.24980        2.72360
H          5.52860       -5.75140        1.05560
H          4.09060       -4.71140        1.29260
H          8.82790        1.84400       -1.95050
H         11.01600        1.04140       -1.16310
H         11.15800       -0.56410        0.72240
H          9.12450       -1.45370        1.76370
H          6.85030        2.76650       -1.68570
H          5.24870        2.66570       -1.66130
H          5.65200       -0.58900       -2.56670
H          6.22650       -1.58130       -4.70820
H          7.12550       -0.16820       -6.54630
H          7.33510        2.29090       -6.23430
H          6.77410        3.30970       -4.05750
