75

P          1.09990       -0.00140        0.00340
C         -0.17940        1.29280        0.09770
C          0.86210       -0.41660       -1.75140
C          0.51040       -1.07300        1.30600
C         -0.14460       -2.27360        1.01840
C         -0.70100       -3.03150        2.05980
C         -0.61720       -2.56880        3.38850
C          0.03940       -1.37640        3.66940
C          0.60250       -0.62630        2.63370
Cu         3.55990       -0.00140        0.00340
Br         3.55990       -2.59120       -0.02820
C          3.55990        2.14840        0.02970
C          2.82320        2.92420       -0.77430
P          6.01990       -0.00140        0.00340
N          7.02310       -1.49490       -0.01520
C          6.69280       -2.54570        1.00870
C          7.20310       -3.95220        0.62860
C          6.98200       -2.17690        2.46010
C          8.44010       -1.42410       -0.34800
C          8.89910       -0.02530       -0.19770
C         10.45120        0.02290       -0.28570
C          8.27530        0.87690       -1.27350
N          6.78210        0.80330       -1.44070
C          6.24550        2.16740       -1.75640
C          7.14230        3.10420       -2.64690
C          4.97150        2.01960       -2.57260
N          7.00810        0.73620        1.41440
C          6.99620        2.13640        2.00670
C          5.67470        2.74560        2.34420
C          7.79640        2.23480        3.35330
C          8.47890        0.48090        1.19560
H         -1.20380        0.90680       -0.04000
H          0.04440        2.06010       -0.67710
H         -0.08520        1.80750        1.07950
H         -0.22410       -0.51490       -1.96510
H          1.37110       -1.36570       -2.00220
H          1.27100        0.40420       -2.37790
H         -0.24520       -2.61680       -0.00340
H         -1.22470       -3.95080        1.83870
H         -1.06630       -3.14410        4.17880
H          0.08640       -1.01360        4.68650
H          1.08020        0.32080        2.86430
H          3.60180        2.62180        0.97370
H          2.38250        2.55480       -1.69050
H          2.65360        3.96630       -0.50500
H          5.65440       -2.65750        1.05390
H          8.30240       -4.04530        0.67900
H          6.86280       -4.21110       -0.39920
H          6.77050       -4.70530        1.32290
H          8.05890       -2.08710        2.66630
H          6.56830       -2.97360        3.11830
H          6.43180       -1.25410        2.74160
H          8.63860       -1.80100       -1.38440
H          9.04430       -2.04350        0.35270
H         10.79840       -0.36470       -1.26280
H         10.90920       -0.59480        0.52150
H         10.83540        1.06050       -0.16390
H          8.72950        0.64170       -2.26390
H          8.61710        1.88020       -0.95910
H          6.08270        2.70130       -0.79590
H          7.24920        2.69590       -3.67330
H          8.15760        3.34290       -2.28450
H          6.65490        4.10050       -2.71920
H          5.18080        1.64780       -3.59100
H          4.50200        3.02470       -2.66700
H          4.29570        1.27020       -2.12910
H          7.47870        2.85910        1.29730
H          5.04680        2.09600        2.99890
H          5.37540        3.04580        1.36930
H          5.77580        3.74220        2.83340
H          7.35040        1.58290        4.13050
H          7.79650        3.28590        3.73270
H          8.87240        1.98950        3.27810
H          8.87310       -0.15930        2.01130
H          9.08550        1.41250        1.27140
