39

P          0.99790       -0.06440       -0.07650
C         -0.20160       -0.04510        1.31090
C          0.71200        1.69150       -0.47710
C          0.22670       -1.39590       -1.00200
C         -0.33880       -1.18470       -2.26150
C         -1.08810       -2.20220       -2.86710
C         -1.28850       -3.42160       -2.20830
C         -0.71630       -3.63980       -0.95480
C          0.04650       -2.63630       -0.35770
Cu         3.45790       -0.06440       -0.07650
Br         3.33710       -0.14840       -2.56690
C          3.66330        0.05800        2.05200
C          2.73740       -0.19480        2.97870
N          5.55790       -0.06440       -0.07650
C          5.61560        1.34020       -0.49880
N          6.25500       -0.24180        1.09200
C          7.39660       -0.77500        0.87990
C          7.54350       -1.06030       -0.46830
C          6.36650       -0.64910       -1.08250
H         -1.24570        0.12410        1.00950
H          0.11730        0.75420        2.02200
H         -0.14050       -1.00010        1.87450
H         -0.38620        1.88040       -0.50420
H          1.13900        1.96110       -1.45820
H          1.14310        2.33090        0.32320
H         -0.22410       -0.23100       -2.75730
H         -1.53860       -2.03640       -3.83520
H         -1.89630       -4.19370       -2.66150
H         -0.88300       -4.57530       -0.43330
H          0.45110       -2.81560        0.63160
H          4.59770        0.31970        2.50130
H          1.75940       -0.61710        2.78520
H          3.00760       -0.14190        4.04000
H          5.02910        1.95870        0.21270
H          5.18680        1.51430       -1.50780
H          6.65820        1.74490       -0.49080
H          8.10970       -0.97230        1.67020
H          8.40170       -1.52090       -0.93740
H          6.14630       -0.73780       -2.13740
