52

P          1.04500       -0.07670       -0.04580
C          0.08180       -0.89680        1.25530
C         -1.31410       -0.80610        1.38100
C         -1.95290       -1.39340        2.47380
C         -1.21550       -2.08210        3.45040
Cl        -2.01490       -2.80580        4.83430
C          0.17610       -2.17000        3.33040
C          0.81660       -1.57800        2.24700
C          0.38130        1.58000        0.22910
C          0.29770        2.10910        1.52980
C         -0.27880        3.36280        1.74550
C         -0.75940        4.10760        0.66460
Cl        -1.48780        5.68010        0.93950
C         -0.66670        3.59350       -0.63300
C         -0.10800        2.32850       -0.84990
C          0.54220       -1.22110       -1.38510
C         -0.34600       -2.31950       -1.23840
C         -0.79130       -3.03000       -2.35520
C         -0.35930       -2.68750       -3.62840
Cl        -0.93570       -3.57380       -5.02960
C          0.53500       -1.62130       -3.79370
C          0.97100       -0.89460       -2.68200
Cu         3.50500       -0.07670       -0.04580
Br         3.50500       -2.66580        0.02030
C          3.50500        2.07260       -0.10070
C          4.44030        3.02180        0.06480
N          5.60500       -0.07670       -0.04580
C          6.36520       -0.98470        0.67230
Cl         5.71750       -2.05490        1.90830
C          7.76300       -0.91670        0.66920
C          8.41040        0.02920       -0.10950
C          7.65660        0.91930       -0.85680
C          6.26260        0.86070       -0.79620
H         -1.89340       -0.26400        0.64880
H         -3.02900       -1.31710        2.58200
H          0.75980       -2.68490        4.08550
H          1.89420       -1.63510        2.18730
H          0.65300        1.54160        2.38080
H         -0.35870        3.75080        2.75380
H         -1.03670        4.16870       -1.47250
H         -0.05370        1.93700       -1.85760
H         -0.75290       -2.63050       -0.29320
H         -1.49780       -3.84300       -2.22200
H          0.86500       -1.33970       -4.78420
H          1.62820       -0.04820       -2.83700
H          2.54310        2.50510       -0.28040
H          5.47850        2.86030        0.29460
H          4.13900        4.06360       -0.02590
H          8.34760       -1.57860        1.29720
H          9.49110        0.08050       -0.11650
H          8.14750        1.65080       -1.48450
H          5.71370        1.52920       -1.43800
