65

P          0.93210       -0.03500        0.06460
C          0.06670        1.49780        0.56250
C         -1.28160        1.63620        0.94300
C         -1.75040        2.88410        1.42800
C         -0.88520        3.99650        1.51960
C         -1.32850        5.33860        2.04450
C          0.44300        3.85010        1.13070
C          0.90820        2.62020        0.68100
C          0.53290        0.17110       -1.72420
C          0.83590        1.32040       -2.45050
C          0.67210        1.38180       -3.83140
C          0.11730        0.30870       -4.53120
C         -0.06280        0.39520       -6.01770
C         -0.28700       -0.82540       -3.81980
C         -0.08040       -0.89480       -2.43470
C          0.23610       -1.44830        0.99910
C          0.32310       -2.72760        0.40530
C         -0.12560       -3.87250        1.06190
C         -0.64900       -3.78020        2.35340
C         -1.10160       -5.02460        3.07220
C         -0.72520       -2.51880        2.97070
C         -0.29320       -1.35550        2.29880
Cu         3.39210       -0.03500        0.06460
Br         3.63700        1.79780       -1.63800
C          3.26020       -1.62510        1.53540
C          4.12810       -2.38510        2.21870
N          5.49210       -0.03500        0.06460
C          6.25850       -0.22770        1.20880
O          5.65420       -0.19090        2.43130
C          6.21810       -0.33910        3.69800
C          7.67850       -0.21100        1.13180
C          8.31590        0.05300       -0.06730
C          7.55700        0.33230       -1.18050
C          6.16810        0.29530       -1.09390
H         -1.95470        0.79180        0.90760
H         -2.78020        2.98490        1.74690
H         -2.38690        5.33320        2.37460
H         -1.20390        6.11410        1.25750
H         -0.69560        5.63110        2.91300
H          1.13140        4.68600        1.19910
H          1.95380        2.54950        0.43020
H          1.21690        2.18580       -1.95860
H          0.98230        2.27640       -4.35160
H          0.33300        1.35670       -6.41090
H         -1.14320        0.33870       -6.26090
H          0.47660       -0.43190       -6.52650
H         -0.74400       -1.66300       -4.33920
H         -0.39920       -1.80010       -1.95220
H          0.76450       -2.86320       -0.56960
H         -0.04260       -4.83350        0.56620
H         -0.96910       -5.93550        2.44600
H         -2.17670       -4.94340        3.33360
H         -0.50920       -5.16450        4.00100
H         -1.10810       -2.44310        3.98070
H         -0.33820       -0.40380        2.80700
H          2.30130       -1.94850        1.80330
H          5.19530       -2.34630        2.18060
H          3.73080       -3.13920        2.90090
H          5.56290       -1.00020        4.29610
H          6.27420        0.63890        4.22520
H          7.21560       -0.81720        3.69610
H          8.32100       -0.32690        1.98950
H          9.39820        0.08760       -0.12670
H          8.04000        0.57420       -2.11990
H          5.67350        0.46160       -2.02750
