29

P          1.06280       -0.05570        0.05430
C         -0.06940       -1.20160       -0.79860
C          0.74190       -0.62060        1.75350
C          0.29130        1.48650       -0.44820
C         -0.35650        2.31160        0.48010
C         -1.07750        3.42830        0.03920
C         -1.16580        3.71440       -1.32740
C         -0.51810        2.89590       -2.25540
C          0.21380        1.78960       -1.81790
Cu         3.52280       -0.05570        0.05430
Br         3.49840        1.95270        1.50320
C          3.62910       -1.76610       -1.18890
C          4.76090       -2.32090       -1.65460
C          5.67280       -0.05570        0.05430
O          6.89090       -0.05570        0.05430
H         -1.13300       -1.04810       -0.55150
H          0.24190       -2.23940       -0.54200
H          0.09490       -1.10190       -1.89510
H         -0.36050       -0.67420        1.90140
H          1.16440        0.08160        2.49540
H          1.16030       -1.63790        1.89680
H         -0.32750        2.08060        1.53640
H         -1.58820        4.05940        0.75420
H         -1.74510        4.56230       -1.66930
H         -0.60060        3.10470       -3.31480
H          0.68040        1.14520       -2.55300
H          2.69830       -2.21660       -1.50020
H          5.76010       -1.95150       -1.44560
H          4.72450       -3.18210       -2.31890
