58

P          1.08350        0.04900        0.02500
C          0.05920       -0.08110        1.51950
C         -1.32630        0.13750        1.52050
C         -2.03510        0.15110        2.73200
C         -1.37100       -0.05980        3.95360
C         -2.11540       -0.01960        5.25960
C          0.00950       -0.28910        3.95010
C          0.71780       -0.28760        2.74480
C          0.53400        1.72350       -0.40870
C          0.88280        2.79470        0.42950
C          0.43310        4.09130        0.15970
C         -0.38060        4.34020       -0.95310
C         -0.90560        5.72670       -1.21850
C         -0.71840        3.27360       -1.80680
C         -0.26330        1.97210       -1.53870
C          0.68870       -1.60420       -0.67090
C         -0.21100       -2.52740       -0.08380
C         -0.50540       -3.74370       -0.70960
C          0.09540       -4.08190       -1.92740
C         -0.18360       -5.40880       -2.57990
C          0.97200       -3.16970       -2.52910
C          1.25720       -1.94230       -1.91190
Cu         3.54350        0.04900        0.02500
Br         3.54350       -2.19080        1.32560
C          3.54350        1.90830       -1.05460
C          4.46760        2.85000       -1.27520
N          5.64350        0.04900        0.02500
C          6.40730       -0.79650        0.76290
O          7.69410       -0.62300        0.55980
C          7.82100        0.30930       -0.34100
C          6.56760        0.72390       -0.70170
H         -1.84800        0.33200        0.59440
H         -3.09900        0.34420        2.71920
H         -3.19130        0.20950        5.10800
H         -1.68560        0.76910        5.91540
H         -2.03200       -0.99830        5.77680
H          0.54270       -0.44470        4.88190
H          1.78920       -0.42940        2.77810
H          1.49820        2.62540        1.30330
H          0.71200        4.89770        0.82740
H         -0.56650        6.44830       -0.44280
H         -2.01600        5.71040       -1.20110
H         -0.56570        6.09570       -2.20960
H         -1.34520        3.45360       -2.67190
H         -0.54480        1.16270       -2.19940
H         -0.71890       -2.33590        0.84540
H         -1.20470       -4.42400       -0.23820
H         -0.89540       -6.01920       -1.98240
H          0.76600       -5.97900       -2.66400
H         -0.61020       -5.26910       -3.59540
H          1.43270       -3.41090       -3.47940
H          1.92850       -1.25320       -2.40840
H          2.60170        2.24550       -1.42840
H          5.42910        2.89010       -0.81230
H          4.19750        3.74910       -1.82080
H          6.04740       -1.52090        1.46660
H          8.75990        0.64700       -0.76560
H          6.42970        1.39050       -1.52180
