65

P          0.92660       -0.06590        0.01640
C          0.14590       -0.68910        1.53810
C          1.06870       -1.06820        2.53190
C          0.66740       -1.44620        3.81250
C          1.69280       -1.85760        4.83730
C         -0.69300       -1.40900        4.12850
C         -1.62810       -1.00770        3.16340
C         -1.21740       -0.64960        1.86680
C          0.24170        1.61310        0.02960
C          0.02420        2.30370        1.23650
C         -0.61780        3.55220        1.24020
C         -0.91120        4.25960        2.53120
C         -1.01470        4.12760        0.02600
C         -0.78600        3.45700       -1.17750
C         -0.17450        2.19950       -1.17660
C          0.28240       -1.23600       -1.20180
C          1.10340       -2.02260       -2.01560
C          0.56100       -2.74200       -3.10300
C          1.42430       -3.55010       -4.01360
C         -0.81850       -2.65900       -3.36830
C         -1.64040       -1.87530       -2.56570
C         -1.09180       -1.16650       -1.49930
Cu         3.38660       -0.06590        0.01640
Br         3.38660       -2.57810        0.64610
C          3.38660        2.01960       -0.50640
C          4.34770        2.94240       -0.54900
C          5.53660       -0.06590        0.01640
N          6.29810       -0.74000        0.91730
C          5.89880       -1.40590        2.15210
C          7.58260       -0.54700        0.56930
C          7.61220        0.21220       -0.56890
N          6.34620        0.50620       -0.92860
C          6.02600        1.04480       -2.26290
H          2.12340       -1.02970        2.32740
H          2.72440       -1.83360        4.41960
H          1.48850       -2.89660        5.17110
H          1.66370       -1.17780        5.71440
H         -1.02270       -1.66930        5.12780
H         -2.67280       -0.94780        3.43270
H         -1.95710       -0.29650        1.17290
H          0.31890        1.86000        2.17790
H         -0.54380        3.68180        3.40580
H         -2.01070        4.38310        2.64010
H         -0.43180        5.25960        2.53800
H         -1.51210        5.09030        0.01370
H         -1.10220        3.90550       -2.11050
H         -0.03180        1.68180       -2.11690
H          2.17360       -2.03760       -1.85060
H          2.48830       -3.54400       -3.68690
H          1.37200       -3.12650       -5.03890
H          1.05750       -4.59690       -4.04870
H         -1.24970       -3.17790       -4.21410
H         -2.69610       -1.78510       -2.79120
H         -1.75140       -0.51790       -0.94450
H          2.41910        2.43130       -0.70870
H          5.37780        2.75460       -0.29180
H          4.07220        3.96060       -0.82400
H          4.82640       -1.24880        2.36650
H          6.43110       -0.93080        3.00490
H          6.16400       -2.48190        2.11830
H          8.43890       -0.93160        1.10810
H          8.50070        0.48390       -1.12720
H          6.95630        1.16830       -2.85730
H          5.54170        2.01670       -2.32040
H          5.39240        0.30870       -2.80100
