79

P          0.93730       -0.06920       -0.03560
C         -0.09570       -0.49920        1.54170
C         -1.54330       -0.50040        1.58850
C         -2.45620        0.01100        0.51980
C         -2.23980       -0.98690        2.71700
C         -1.59140       -1.43610        3.85290
C         -2.34400       -2.01630        5.02440
C         -0.22560       -1.32660        3.90960
C          0.54300       -0.85430        2.82370
C          2.00900       -0.74180        3.22920
C          0.26660        1.66760       -0.34580
C          0.45960        2.74020        0.59050
C          1.29180        2.62640        1.82140
C         -0.14560        3.99630        0.39650
C         -0.95200        4.25000       -0.70590
C         -1.62090        5.58270       -0.91030
C         -1.14930        3.23970       -1.63950
C         -0.56310        1.96470       -1.49000
C         -0.92060        0.96940       -2.56710
C          0.66380       -1.51530       -1.23900
C         -0.24760       -2.63660       -1.09010
C         -0.95970       -3.11720        0.14130
C         -0.56500       -3.44920       -2.20250
C          0.01970       -3.26550       -3.44420
C         -0.37120       -4.12650       -4.62060
C          0.98600       -2.28760       -3.58460
C          1.32590       -1.42380       -2.52390
C          2.41540       -0.42810       -2.83830
Cu         3.39730       -0.06920       -0.03560
Br         3.39730       -2.52400        0.79040
C          3.39730        1.96850       -0.72140
C          4.32590        2.93100       -0.61800
N          5.49730       -0.06920       -0.03560
C          6.17440       -0.93830        0.78410
C          7.57020       -0.91290        0.88900
C          8.30310       -0.03960        0.09680
F          9.65550       -0.00030        0.18230
C          7.63500        0.78300       -0.79560
C          6.24100        0.75640       -0.83990
H         -2.06570        0.89520        0.03890
H         -3.33670        0.48850        1.01140
H         -2.83170       -0.78120       -0.14740
H         -3.32540       -1.01660        2.72240
H         -3.43970       -2.03190        4.84790
H         -2.14140       -1.43080        5.94520
H         -2.01320       -3.06660        5.19690
H          0.24200       -1.63720        4.84040
H          2.19440       -0.99480        4.29900
H          2.44340        0.25890        3.14570
H          2.64410       -1.45340        2.77800
H          1.78880        1.66550        1.85000
H          0.66000        2.76720        2.72580
H          2.08790        3.40020        1.80930
H          0.00970        4.78600        1.12430
H         -1.39520        6.29550       -0.08910
H         -2.72410        5.44710       -0.95650
H         -1.28100        6.03090       -1.86710
H         -1.78520        3.45820       -2.48990
H         -1.73100        1.35550       -3.22570
H         -1.31210        0.03570       -2.12880
H         -0.06170        0.78950       -3.23100
H         -0.56480       -2.75080        1.07910
H         -0.75770       -4.20470        0.25120
H         -2.06000       -2.99120        0.04340
H         -1.28580       -4.25320       -2.09870
H         -1.16340       -4.86240       -4.35510
H          0.50950       -4.68770       -4.99760
H         -0.76970       -3.49240       -5.44400
H          1.46170       -2.18900       -4.55580
H          2.84130       -0.58530       -3.85570
H          3.25930       -0.59610       -2.14770
H          2.07100        0.61720       -2.78450
H          2.47220        2.34310       -1.11710
H          5.26850        2.81110       -0.10760
H          4.10840        3.92950       -0.98230
H          5.66500       -1.59340        1.45960
H          8.07640       -1.55730        1.59610
H          8.18730        1.44080       -1.45520
H          5.78470        1.35770       -1.60130
