20

P          0.93710        0.04830        0.06090
Cl        -0.93660       -0.67270        0.57920
Cl         0.96830        1.19500        1.78900
Cl         0.23250        0.80660       -1.74080
Cu         3.39710        0.04830        0.06090
Br         3.28620        1.93660       -1.56210
C          3.34690       -1.45590        1.48830
C          2.81150       -2.64580        1.23800
O          5.44710        0.04830        0.06090
C          6.21460        0.88030       -0.62420
C          7.53010        0.58610       -0.37520
C          7.53680       -0.47360        0.50350
C          6.21270       -0.77390        0.74500
H          3.76830       -1.25270        2.46720
H          2.38190       -2.85680        0.26710
H          2.80270       -3.40590        2.01310
H          5.88650        1.67490       -1.26550
H          8.39620        1.09730       -0.78790
H          8.40130       -0.96960        0.91060
H          5.88440       -1.57280        1.39160
