60

P          0.92900        0.06440        0.02860
C         -0.01330        1.12450        1.20790
C         -0.51580        0.59140        2.42690
C         -0.88350        1.43210        3.48730
C         -0.76330        2.81590        3.36380
Cl        -1.14190        3.85710        4.72880
C         -0.28400        3.36480        2.17290
C          0.09670        2.53080        1.10810
C          0.63240        0.87360       -1.56800
C          1.71910        1.32380       -2.32410
C          1.52020        1.95760       -3.55270
C          0.22700        2.15760       -4.04110
Cl        -0.00940        2.95960       -5.58450
C         -0.87200        1.72350       -3.29410
C         -0.67420        1.08470       -2.06070
C          0.18200       -1.55070        0.40840
C         -1.22550       -1.68010        0.36320
C         -1.85510       -2.83300        0.84050
C         -1.09020       -3.87740        1.35950
Cl        -1.88550       -5.28820        2.03920
C          0.30680       -3.77990        1.36640
C          0.94360       -2.62160        0.89100
Cu         3.38900        0.06440        0.02860
Br         3.30030       -1.61390       -1.81590
C          3.53120        1.51380        1.58160
C          2.67270        1.75590        2.53880
N          5.48900        0.06440        0.02860
C          6.31920       -0.68050       -0.75520
N          7.63350       -0.46560       -0.46260
C          8.82370       -1.08230       -1.01580
C          8.73620       -2.08460       -1.99850
C          9.89420       -2.69340       -2.49770
C         11.15270       -2.31200       -2.02720
C         11.26030       -1.31860       -1.05850
C         10.11220       -0.70820       -0.55590
C          7.63210        0.44530        0.51840
C          6.35070        0.75610        0.82480
H         -0.52890       -0.46870        2.62600
H         -1.20520        1.00480        4.43080
H         -0.15110        4.43780        2.09830
H          0.55460        2.99040        0.24350
H          2.72610        1.19170       -1.96190
H          2.37530        2.29540       -4.12190
H         -1.87620        1.88430       -3.67100
H         -1.54450        0.76730       -1.50450
H         -1.85080       -0.86950        0.01710
H         -2.93840       -2.89850        0.84100
H          0.89540       -4.58950        1.77570
H          2.01890       -2.54350        0.95120
H          4.39390        2.12400        1.70140
H          1.84070        1.12640        2.67330
H          2.87590        2.51000        3.29800
H          5.98390       -1.37760       -1.50240
H          7.77950       -2.40970       -2.37850
H          9.81570       -3.46730       -3.24820
H         12.04640       -2.78630       -2.41030
H         12.23420       -1.02030       -0.68890
H         10.25920        0.05000        0.19690
H          8.48900        0.86390        1.02380
H          6.18470        1.43910        1.62120
