38

P          0.99670       -0.06390        0.07680
C         -0.21950        1.29440        0.17990
C          0.66960       -0.52370       -1.65440
C          0.39080       -1.23200        1.30260
C         -0.21430       -2.43380        0.90730
C         -0.70960       -3.32010        1.86770
C         -0.61580       -3.00590        3.22640
C         -0.02540       -1.80290        3.62530
C          0.47880       -0.91750        2.66740
Cu         3.45670       -0.06390        0.07680
Br         3.14140       -2.54280        0.22580
C          3.55960        2.03440       -0.13590
C          2.69110        2.85300       -0.73360
N          5.55670       -0.06390        0.07680
C          6.27770       -1.19300        0.43530
F          5.70320       -2.34330        0.81470
C          7.67790       -1.18970        0.52580
C          8.39700       -0.04700        0.23430
C          7.71550        1.07410       -0.17600
C          6.32330        1.04550       -0.25820
H         -1.26920        0.98430        0.09170
H         -0.01890        2.03770       -0.61430
H         -0.03420        1.83090        1.13920
H         -0.43150       -0.61430       -1.79220
H          1.12630       -1.50600       -1.88480
H          1.05400        0.25080       -2.34580
H         -0.30480       -2.68770       -0.13980
H         -1.16940       -4.24910        1.55700
H         -1.00380       -3.69200        3.96850
H          0.03740       -1.55730        4.67810
H          0.92530        0.01520        2.98920
H          4.39830        2.55830        0.26940
H          1.88580        2.46620       -1.28220
H          2.93730        3.91700       -0.74960
H          8.20760       -2.07680        0.84440
H          9.47590       -0.03200        0.31370
H          8.25950        1.97540       -0.43740
H          5.95370        1.95400       -0.66040
