93

P          0.90010       -0.00160        0.00470
C          0.30390        1.08550       -1.32530
C         -1.01960        1.33540       -1.72290
C         -1.27520        2.17140       -2.82950
C         -0.21600        2.79780       -3.51830
C         -0.44560        3.66450       -4.72410
C          1.08450        2.60570       -3.07700
C          1.34060        1.77020       -1.99750
C          0.56270       -1.59160       -0.82640
C          1.39490       -2.67690       -0.50850
C          1.10390       -3.97020       -0.95960
C         -0.04350       -4.20790       -1.73060
C         -0.39610       -5.58680       -2.20530
C         -0.89050       -3.14100       -2.03650
C         -0.60140       -1.85490       -1.57970
C          0.21850        0.44300        1.61000
C         -0.07030       -0.60890        2.48790
C         -0.60230       -0.35890        3.75260
C         -0.85880        0.95400        4.15910
C         -1.41520        1.22780        5.53010
C         -0.58900        2.01370        3.27400
C         -0.04870        1.76370        2.00030
Cu         3.36010       -0.00160        0.00470
Br         3.36010       -0.73900       -2.47810
C          3.36010        0.61060        2.06570
C          4.11200        0.13250        3.04530
P          5.82010       -0.00160        0.00470
C          6.69680        0.17800       -1.62510
C          7.42010        1.35240       -1.97720
C          7.64190        1.68600       -3.33900
C          8.32200        2.96910       -3.75460
C          7.17070        0.84070       -4.34340
C          6.55090       -0.35660       -4.00630
C          6.34750       -0.70250       -2.66130
C          6.28200        1.38430        1.11830
C          6.70250        1.15880        2.44540
C          6.95680        2.23980        3.30970
C          7.19580        2.00460        4.77350
C          6.93570        3.54690        2.81750
C          6.58760        3.78210        1.48870
C          6.21830        2.71550        0.66170
C          6.35630       -1.59990        0.62130
C          5.45210       -2.59140        1.01580
C          5.91680       -3.77920        1.60740
C          4.97020       -4.84080        2.08040
C          7.29620       -3.97540        1.78030
C          8.20030       -2.99100        1.38060
C          7.73890       -1.81000        0.80680
H         -1.85060        0.87440       -1.20990
H         -2.29540        2.32540       -3.15800
H         -1.51980        3.72730       -4.99080
H          0.10360        3.23970       -5.59590
H         -0.06000        4.68960       -4.53660
H          1.92120        3.09950       -3.57050
H          2.36340        1.65520       -1.68070
H          2.25790       -2.52810        0.12210
H          1.75830       -4.78810       -0.68650
H          0.35010       -6.33830       -1.87210
H         -0.43940       -5.59530       -3.31430
H         -1.39080       -5.87970       -1.80430
H         -1.79680       -3.31020       -2.60640
H         -1.32740       -1.10950       -1.80880
H          0.12170       -1.63690        2.19540
H         -0.80300       -1.19630        4.41470
H         -1.56090        0.28600        6.10700
H         -2.39470        1.73950        5.44810
H         -0.70900        1.87060        6.09610
H         -0.78570        3.03380        3.57840
H          0.15600        2.58510        1.33120
H          2.57060        1.28170        2.37040
H          4.82700       -0.64940        2.86720
H          3.95520        0.49210        4.06000
H          7.72870        2.06430       -1.23200
H          8.68800        3.54760       -2.88150
H          7.61200        3.60750       -4.32710
H          9.18490        2.73550       -4.41750
H          7.27430        1.11220       -5.38890
H          6.17390       -0.99680       -4.79410
H          5.80400       -1.60600       -2.44670
H          6.77140        0.16010        2.82700
H          7.09550        0.92960        5.03720
H          6.40910        2.55050        5.34700
H          8.18880        2.37640        5.08610
H          7.16350        4.38310        3.46880
H          6.57800        4.79680        1.11130
H          5.91270        2.94330       -0.35030
H          4.39610       -2.41820        0.89870
H          3.91490       -4.56180        1.88290
H          5.09890       -4.98990        3.17520
H          5.19230       -5.79780        1.56260
H          7.66900       -4.87710        2.24640
H          9.26290       -3.14000        1.53680
H          8.44510       -1.03950        0.52590
