52

P          1.27500       -0.00000       -0.00000
O          0.34260        1.09360        0.96520
C         -1.04270        0.91890        0.90140
C         -1.41010       -0.09820       -0.15320
C         -2.94200       -0.17950       -0.25720
C         -0.74520        0.39050       -1.49740
O          0.67220        0.62870       -1.45730
O          0.60930       -1.39330        0.70050
C         -0.77010       -1.45940        0.30920
Cu         3.73500        0.00030       -0.00050
Br         3.39210       -1.88900       -1.60000
C          3.68600        1.53760        1.47930
C          2.82660        1.51800        2.50050
C          5.88500        0.00060       -0.00090
N          6.69000        1.11110        0.07310
C          6.35450        2.54950       -0.01610
C          7.04010        3.32810        1.11340
C          6.72890        3.14790       -1.38220
C          7.95590        0.65670       -0.00630
C          7.93630       -0.70930       -0.12270
N          6.65420       -1.11370       -0.14820
C          6.26230       -2.54220       -0.16190
C          6.77430       -3.21190       -1.42910
C          6.74280       -3.27740        1.10240
H         -1.48900        1.90970        0.66390
H         -1.41120        0.61130        1.90640
H         -3.36330        0.81930       -0.51350
H         -3.37830       -0.47730        0.72320
H         -3.25290       -0.90910       -1.02800
H         -1.22690        1.35510       -1.77740
H         -0.96620       -0.34210       -2.29890
H         -1.32860       -1.80010        1.20910
H         -0.90970       -2.22510       -0.48160
H          4.39720        2.31970        1.62270
H          2.07510        0.75280        2.60970
H          2.88540        2.28830        3.26790
H          5.27700        2.70330       -0.05640
H          8.14480        3.28040        0.99250
H          6.77670        2.89150        2.09770
H          6.74150        4.39660        1.09220
H          7.81340        3.08650       -1.59490
H          6.42110        4.21950       -1.41070
H          6.16460        2.63020       -2.19010
H          8.84670        1.27420       -0.01550
H          8.80610       -1.34620       -0.18570
H          5.18130       -2.63780       -0.07720
H          7.88340       -3.16540       -1.47390
H          6.36180       -2.69040       -2.31900
H          6.46360       -4.27750       -1.46070
H          7.84460       -3.25680        1.21220
H          6.40900       -4.33850        1.06200
H          6.27830       -2.82430        2.00530
