91

P          0.91190        0.00270        0.04730
C         -0.05390       -0.81850        1.47360
C         -1.58510       -0.70140        1.42130
C          0.27880       -2.33260        1.46700
C          0.43000       -0.30770        2.84180
C          0.56470        1.77400        0.38810
C          1.59360        2.72470        0.50870
C          1.31200        4.07500        0.74590
C         -0.00950        4.51380        0.81600
C         -1.04540        3.60670        0.61810
C         -0.76160        2.25790        0.39330
C          0.25560       -0.74710       -1.46500
C         -0.52290        0.05690       -2.31630
C         -1.08680       -0.47200       -3.47920
C         -0.87560       -1.81140       -3.81100
C         -0.09870       -2.62090       -2.97660
C          0.46820       -2.09090       -1.80770
Cu         3.37190        0.00270        0.04730
Br         3.37190        1.07540        2.40480
C          3.37190       -0.88770       -1.90960
C          3.66350       -2.15370       -2.19720
P          5.83190        0.00270        0.04730
N          6.72170       -1.53070       -0.20920
C          6.20150       -2.58410        0.72760
C          6.75180       -3.98640        0.41480
C          6.42710       -2.27940        2.22620
C          8.17520       -1.45070       -0.33080
C          8.61620       -0.02570       -0.19990
C         10.15880        0.03750       -0.30380
C          7.93910        0.79850       -1.34030
N          6.43340        0.66870       -1.49810
C          5.78960        2.00990       -1.81850
C          5.84990        3.04300       -0.69220
C          6.36240        2.74130       -3.04210
N          6.76570        0.67420        1.52890
C          6.75420        2.10840        2.17080
C          5.51760        2.97470        2.59460
C          7.58110        2.11870        3.50770
C          8.22210        0.44730        1.23010
H         -1.97300       -1.02070        0.43270
H         -1.93950        0.30100        1.70470
H         -2.03750       -1.36000        2.19650
H         -0.15950       -2.85730        0.60150
H         -0.13140       -2.84450        2.36340
H          1.38650       -2.49900        1.47720
H          0.31450        0.79400        2.93860
H          1.47820       -0.59950        3.01470
H         -0.13700       -0.78250        3.67300
H          2.62310        2.44330        0.39610
H          2.12060        4.78470        0.85920
H         -0.22910        5.55960        0.98860
H         -2.07350        3.95060        0.62150
H         -1.59390        1.61410        0.18610
H         -0.70640        1.09590       -2.07920
H         -1.69340        0.15750       -4.11920
H         -1.31380       -2.22180       -4.71210
H          0.06180       -3.65890       -3.23520
H          1.06610       -2.72790       -1.17860
H          3.00740       -0.25390       -2.71190
H          3.93240       -2.86830       -1.43380
H          3.55670       -2.48710       -3.22810
H          5.10040       -2.65320        0.58400
H          7.84580       -4.05680        0.58060
H          6.52290       -4.26390       -0.63120
H          6.27470       -4.73530        1.08770
H          7.50400       -2.19730        2.47190
H          6.00110       -3.09530        2.84640
H          5.89410       -1.36460        2.54770
H          8.47460       -1.86090       -1.31750
H          8.69170       -2.04910        0.45040
H         10.51130       -0.33780       -1.28550
H         10.62470       -0.58230        0.49600
H         10.52320        1.07950       -0.17150
H          8.38560        0.52400       -2.31980
H          8.25660        1.86540       -1.17000
H          4.70550        1.83080       -1.99920
H          6.88990        3.36970       -0.46500
H          5.34230        2.57530        0.12040
H          5.28820        3.97550       -0.90730
H          7.42700        3.01110       -2.90760
H          5.82590        3.71740       -3.17510
H          6.23270        2.15970       -3.96630
H          7.29120        2.79090        1.49090
H          5.05970        2.62300        3.54340
H          4.72840        3.23130        1.87530
H          5.87180        4.00130        2.85160
H          7.06560        1.50500        4.27620
H          7.66450        3.15700        3.90700
H          8.62280        1.77320        3.42260
H          8.64050       -0.22960        2.01000
H          8.82400        1.37510        1.33030
