50

P          1.07530       -0.01180        0.06470
O          0.76010        1.05600       -1.22920
C          1.20830        2.34640       -0.88840
C          0.79050        3.30700       -1.99620
O          0.78280       -1.66490       -0.32500
C         -0.59120       -1.85840       -0.64680
C         -0.91110       -3.34100       -0.74760
C         -0.24760        0.27930        1.29170
C         -1.24200        1.26670        1.22790
C         -2.17510        1.38520        2.28190
C         -2.12340        0.51860        3.37800
C         -1.13900       -0.46740        3.43840
C         -0.20720       -0.57840        2.41170
Cu         3.53530       -0.01180        0.06470
Br         3.53530       -0.93380       -2.35570
C          3.53530        0.75350        2.07390
C          4.57900        0.99010        2.87330
N          5.63530       -0.01180        0.06470
C          6.35050        1.13050        0.29760
O          5.66900        2.30480        0.38430
C          6.21450        3.55340        0.13790
C          7.75700        1.09240        0.23830
C          8.40260       -0.11760       -0.02930
C          7.65190       -1.25230       -0.30960
C          6.25590       -1.16090       -0.31190
H          2.31500        2.37140       -0.79180
H          0.74360        2.71300        0.05120
H          1.27370        3.01740       -2.95330
H          1.09230        4.34410       -1.73920
H         -0.31330        3.28240       -2.13150
H         -0.85240       -1.35140       -1.59770
H         -1.28310       -1.52710        0.15360
H         -0.33180       -3.80840       -1.56560
H         -1.99960       -3.46900       -0.94900
H         -0.67950       -3.84970        0.21480
H         -1.31640        1.95210        0.39920
H         -2.93690        2.15230        2.25130
H         -2.84230        0.60570        4.18490
H         -1.09800       -1.14480        4.28360
H          0.55100       -1.35330        2.48730
H          2.55210        0.95990        2.48390
H          5.60080        0.80550        2.59590
H          4.40350        1.38440        3.86910
H          5.39940        4.30090        0.03990
H          6.76820        3.55490       -0.83180
H          6.89560        3.84940        0.95870
H          8.35720        1.98280        0.36740
H          9.48260       -0.16310       -0.05710
H          8.13850       -2.19530       -0.52090
H          5.66890       -2.04780       -0.51100
