111

P          0.92550        0.03950        0.05380
C          0.38880        1.61440       -0.72880
C         -0.45200        2.55280       -0.08400
C         -0.94660        3.66950       -0.76590
C         -0.62620        3.87330       -2.10560
C          0.18980        2.95660       -2.76850
C          0.70420        1.84440       -2.08190
C          0.07340       -1.41860       -0.91960
C         -0.40950       -1.25380       -2.24140
C         -0.90970       -2.33470       -3.00110
C         -0.95840       -3.62530       -2.48000
C         -0.59770       -3.82800       -1.16480
C         -0.14420       -2.75110       -0.39510
C         -0.22310        0.03240        1.55110
C         -1.76480       -0.09880        1.55630
C         -2.46380       -1.19330        0.99840
C         -3.83370       -1.35140        1.10890
C         -4.57690       -0.42270        1.80960
C         -3.93480        0.66470        2.40340
C         -2.54020        0.82950        2.28080
Cu         3.38550        0.03950        0.05380
Br         3.27750        1.19200        2.25940
C          3.19750       -0.94360       -1.90120
C          4.13280       -1.40150       -2.74820
C          5.53550        0.03950        0.05380
N          6.26090       -1.11480       -0.29090
C          6.08380       -2.60780       -0.63550
C          4.81630       -3.28790       -0.50600
C          3.78300       -2.70890        0.34380
C          2.45990       -3.13800       -0.08420
C          3.81130       -2.65760        1.87760
C          4.49220       -4.45690       -1.27010
C          5.36930       -5.09220       -2.06580
C          6.65290       -4.72150       -1.98130
C          7.10890       -3.60030       -1.23970
C          8.69290       -3.68650       -1.23710
C          9.28820       -5.15100       -0.91760
C          9.29260       -3.29740       -2.58690
C          7.65320       -0.77080       -0.21040
C          7.65730        0.72500       -0.11950
N          6.39100        1.13120        0.44000
C          6.16560        2.55140        0.74850
C          5.00620        3.34610        0.30400
C          3.88940        2.93420       -0.71910
C          2.85020        4.06540       -0.97830
C          4.43230        2.54860       -2.10770
C          4.88280        4.66870        0.82480
C          5.80600        5.24750        1.64650
C          6.93850        4.57200        1.98300
C          7.17620        3.25660        1.55840
C          8.52320        2.71210        2.10170
C          8.31470        1.43100        2.93400
C          9.75340        2.78070        1.11700
H         -0.76640        2.44540        0.93500
H         -1.59550        4.37150       -0.25600
H         -1.01140        4.74030       -2.62850
H          0.44350        3.12060       -3.80820
H          1.33310        1.15420       -2.62370
H         -0.39090       -0.30370       -2.72450
H         -1.24550       -2.18060       -4.01640
H         -1.29910       -4.46350       -3.08110
H         -0.65640       -4.82730       -0.73590
H          0.06460       -3.01210        0.63910
H          0.08630        0.88320        2.19470
H          0.11640       -0.86640        2.11190
H         -2.03850       -1.99040        0.50040
H         -4.30410       -2.21800        0.66010
H         -5.64290       -0.57350        1.90400
H         -4.51700        1.37020        2.97610
H         -2.07130        1.66310        2.78630
H          2.19760       -1.06940       -2.27420
H          5.19120       -1.35210       -2.57650
H          3.82040       -1.87650       -3.67910
H          3.91290       -1.74030        0.11220
H          2.17420       -4.14780        0.27330
H          2.28640       -3.09810       -1.18880
H          1.92940       -2.34280        0.39700
H          3.66230       -3.66100        2.31400
H          2.93380       -2.04010        2.22300
H          4.69120       -2.11700        2.26420
H          3.51960       -4.91060       -1.30170
H          5.05430       -5.94130       -2.66070
H          7.28920       -5.38030       -2.56430
H          9.09370       -3.02110       -0.45330
H          8.99720       -5.96140       -1.63460
H          9.03580       -5.57370        0.07750
H         10.39510       -5.18810       -1.02950
H          9.07880       -4.09620       -3.33540
H          9.20130       -4.10480       -3.35200
H          8.80280       -2.37870       -2.93110
H          8.27850       -1.05030       -1.06190
H          8.02740       -1.21790        0.74690
H          7.74510        1.18360       -1.13400
H          8.51870        0.85260        0.47680
H          3.31800        2.08170       -0.34810
H          3.32720        4.99980       -1.34490
H          2.23740        4.26310       -0.07100
H          2.17350        3.83890       -1.78970
H          4.95380        3.40210       -2.58940
H          3.58340        2.26510       -2.77670
H          5.10130        1.67210       -2.06300
H          4.06560        5.33730        0.62360
H          5.64660        6.25650        2.00910
H          7.64170        5.10690        2.60790
H          8.91940        3.40620        2.87470
H          7.78740        0.60180        2.43740
H          7.67900        1.68450        3.80790
H          9.28800        1.04770        3.29700
H          9.73770        2.33040        0.10540
H         10.64100        2.34000        1.62280
H          9.99170        3.83520        0.87550
