90

P          0.90080        0.01180        0.00380
C         -0.14310       -0.24930       -1.56950
C         -1.67970       -0.28660       -1.49280
C          0.17630        0.92900       -2.53990
C          0.23920       -1.64320       -2.17980
C          0.58440       -1.48130        1.01390
C          1.65400       -2.28290        1.42160
C          1.43560       -3.42390        2.21050
C          0.14390       -3.78490        2.58970
C         -0.92960       -3.00090        2.19300
C         -0.71570       -1.86260        1.41470
C          0.20660        1.45060        0.89790
C         -1.17510        1.50020        1.19210
C         -1.75200        2.57290        1.85500
C         -0.95890        3.63750        2.26670
C          0.41510        3.61910        1.99980
C          0.99780        2.53090        1.31150
Cu         3.36080        0.01180        0.00380
Br         3.36080        0.31630        2.57580
C          3.36080       -0.24090       -2.13130
C          4.45540       -0.10900       -2.88160
C          5.51080        0.01180        0.00380
N          6.24260        1.16250        0.30070
C          5.87010        2.60000        0.46810
C          6.66750        3.48760        1.29700
C          7.91280        3.09360        2.06000
C          6.29630        4.83610        1.47610
C          5.19490        5.38560        0.84790
C          4.78550        6.80960        1.10260
C          4.46890        4.60820       -0.02860
C          4.78690        3.25420       -0.25160
C          3.95370        2.64020       -1.33240
C          7.51790        0.75370        0.20760
C          7.59250       -0.54720       -0.13170
N          6.35590       -1.02880       -0.35670
C          6.19230       -2.36670       -0.92150
C          5.45040       -3.46880       -0.34640
C          4.87290       -3.51220        1.03540
C          5.28190       -4.66190       -1.08930
C          5.84790       -4.81280       -2.35650
C          5.62480       -6.02470       -3.21440
C          6.65690       -3.81310       -2.85560
C          6.85780       -2.62380       -2.16210
C          7.80510       -1.63960       -2.81700
H         -2.11040        0.68280       -1.19030
H         -2.05600       -1.12020       -0.88090
H         -2.08890       -0.47510       -2.51290
H         -0.23130        1.87550       -2.12790
H         -0.27890        0.76230       -3.54030
H          1.23730        1.15930       -2.70500
H         -0.15670       -2.45790       -1.54050
H          1.30020       -1.91110       -2.24610
H         -0.19190       -1.76890       -3.19660
H          2.64350       -2.00090        1.12920
H          2.26170       -4.04030        2.53490
H         -0.01970       -4.66800        3.19300
H         -1.93970       -3.27530        2.48500
H         -1.58570       -1.30940        1.15630
H         -1.84930        0.71890        0.91570
H         -2.81710        2.57650        2.06030
H         -1.41270        4.47180        2.79340
H          1.02340        4.44830        2.32380
H          2.05610        2.54520        1.11440
H          2.50280       -0.41910       -2.71760
H          5.40330        0.15180       -2.45630
H          4.40140       -0.20140       -3.96120
H          8.77460        2.92920        1.38880
H          7.70480        2.22970        2.71620
H          8.30270        3.92000        2.68660
H          6.88100        5.48250        2.11710
H          5.45040        7.29750        1.84630
H          3.75400        6.81210        1.51370
H          4.80340        7.40280        0.16380
H          3.64460        5.08410       -0.55100
H          3.22380        3.34320       -1.79720
H          3.33920        1.85900       -0.90990
H          4.61600        2.34000       -2.16800
H          8.41280        1.33020        0.28050
H          8.51160       -1.09220       -0.24880
H          5.03240       -2.58780        1.62180
H          5.35140       -4.35320        1.59310
H          3.81320       -3.78980        0.95730
H          4.70330       -5.48330       -0.67930
H          4.94840       -6.76160       -2.74110
H          6.59340       -6.51150       -3.46010
H          5.15720       -5.68620       -4.16660
H          7.13940       -3.96700       -3.81080
H          8.13870       -1.97150       -3.81900
H          8.74850       -1.57300       -2.24360
H          7.35470       -0.63940       -2.91820
