57

P          0.93350        0.05160        0.05400
C         -0.13640       -0.23410        1.50540
C          0.62700        1.84640       -0.06520
C         -0.04380       -1.03250       -1.03680
Cu         3.39350        0.05160        0.05400
Br         3.39350        1.92520        1.84230
C          3.39350       -1.50360       -1.43050
C          3.95710       -2.69810       -1.26690
P          5.85350        0.05160        0.05400
C          6.77990        1.55070        0.65480
C          6.37450        2.14080        1.86120
C          6.70340        3.45810        2.18340
C          7.53880        4.18890        1.34820
C          8.09320        3.57150        0.22660
C          7.71370        2.26280       -0.12060
C          6.32670       -0.89730        1.51530
C          5.38920       -1.52840        2.34720
C          5.82610       -2.26030        3.45130
C          7.20150       -2.37970        3.74130
C          8.13800       -1.74260        2.91530
C          7.69920       -1.02230        1.81070
C          6.41030       -0.23910       -1.68740
C          6.02620        0.94820       -2.59200
C          6.99610        1.74920       -3.23640
C          6.62600        2.85010       -4.02390
C          5.27350        3.15130       -4.21230
C          4.30550        2.36110       -3.60660
C          4.67470        1.28000       -2.79740
H         -1.19850        0.01580        1.32730
H          0.25080        0.38110        2.34820
H         -0.03810       -1.29800        1.81320
H         -0.46930        2.02310       -0.07410
H          1.05420        2.23680       -1.01010
H          1.02850        2.40580        0.79400
H         -1.12380       -0.78060       -0.90230
H          0.09770       -2.09840       -0.77620
H          0.20000       -0.83710       -2.09760
H          2.90470       -1.29250       -2.37630
H          4.46320       -2.96320       -0.34840
H          3.90700       -3.41810       -2.08080
H          5.73620        1.60690        2.53300
H          6.27260        3.92060        3.06340
H          7.76360        5.22280        1.58150
H          8.77340        4.13230       -0.40160
H          8.12180        1.85350       -1.01230
H          4.32720       -1.45260        2.13000
H          5.11650       -2.75510        4.09650
H          7.53820       -2.93790        4.60060
H          9.19280       -1.82630        3.13120
H          8.44830       -0.54560        1.17970
H          6.01330       -1.18250       -2.09270
H          7.51890       -0.32890       -1.66360
H          8.05810        1.55190       -3.12830
H          7.37690        3.47260       -4.48850
H          4.98610        3.99290       -4.83030
H          3.25950        2.58700       -3.75630
H          3.89320        0.72520       -2.34060
