37

P          0.93110        0.02410       -0.06830
C         -0.17330       -1.41690        0.12840
C          0.63340        0.70770        1.59810
C         -0.03870        0.74020       -1.43570
Cu         3.39110        0.02410       -0.06830
Br         3.39110       -1.03420        2.29560
C          3.39110        0.90260       -2.03060
C          4.31500        0.66530       -2.96140
N          5.49110        0.02410       -0.06830
C          6.17460       -1.14260        0.15110
C          5.45220       -2.45180        0.25020
C          7.57680       -1.16280        0.07820
C          8.26790        0.01380       -0.17710
C          7.57160        1.18950       -0.36830
C          6.16790        1.19030       -0.31280
C          5.44400        2.52030       -0.32160
H         -1.22670       -1.14080        0.32080
H          0.20540       -2.02850        0.97780
H         -0.10090       -2.05020       -0.78200
H         -0.46110        0.79970        1.76000
H          1.08760        1.71510        1.67780
H          1.01030        0.05400        2.40000
H         -1.11950        0.70210       -1.15720
H          0.09860        0.16420       -2.37040
H          0.21470        1.80790       -1.57390
H          2.57830        1.57880       -2.26990
H          5.14900        0.00190       -2.77410
H          4.23380        1.15950       -3.92620
H          4.35970       -2.32170        0.13260
H          5.68830       -2.96700        1.20180
H          5.76860       -3.09890       -0.59890
H          8.12260       -2.09600        0.19110
H          9.35140        0.00310       -0.24590
H          8.11860        2.11910       -0.52350
H          6.15550        3.37140       -0.34520
H          4.88380        2.60040        0.63550
H          4.74910        2.67940       -1.15110
