82

P          0.96190        0.08780        0.02900
C          0.68020       -1.49610       -0.81430
C         -0.18840       -1.67240       -1.93140
C         -0.39100       -2.92860       -2.50430
C          0.27180       -4.04490       -1.99570
C          1.14370       -3.89880       -0.91070
C          1.34360       -2.64430       -0.33390
C          0.54490        0.42860        1.77590
C          1.06880        1.54080        2.46320
C          0.79250        1.75560        3.81650
C         -0.04350        0.87750        4.50150
C         -0.59300       -0.22350        3.83240
C         -0.28740       -0.45560        2.48260
C         -0.27710        1.22610       -0.82390
C         -1.79240        0.94230       -0.65390
C         -2.40380        1.58070        0.60210
C         -2.17770        3.09910        0.60270
C         -0.69370        3.43110        0.54090
C         -0.01270        2.75480       -0.66600
Cu         3.42190        0.08780        0.02900
Br         3.42190       -0.09070       -2.55480
C          3.42190        0.23600        2.17390
C          3.01620       -0.70660        3.02900
P          5.88190        0.08780        0.02900
N          7.00120       -0.93820       -0.98540
C          6.52440       -1.12540       -2.36030
C          8.46660       -1.11480       -0.91400
C          9.02640       -0.94340        0.44700
N          8.67070        0.35140        1.04370
C          8.59970        1.69700        0.40150
C          7.75350        1.85400       -0.91420
N          6.28700        1.55080       -0.88650
C          5.53000        2.67180       -0.32480
N          6.15250       -0.40360        1.73770
C          5.82480       -1.79470        2.07440
C          6.94450        0.40260        2.69410
C          8.44070        0.27330        2.47830
H         -0.73760       -0.86350       -2.37950
H         -1.07050       -3.03430       -3.33930
H          0.10710       -5.01760       -2.43980
H          1.65660       -4.77020       -0.52200
H          2.01070       -2.55500        0.51560
H          1.73110        2.23230        1.95320
H          1.23380        2.59960        4.33230
H         -0.26200        1.04630        5.54780
H         -1.24850       -0.89620        4.36660
H         -0.71580       -1.31530        1.98470
H         -0.00830        1.05090       -1.88480
H         -2.01780       -0.14040       -0.68320
H         -2.31160        1.41420       -1.51920
H         -1.98320        1.14040        1.51630
H         -3.49640        1.38020        0.61420
H         -2.61710        3.53990        1.52640
H         -2.68630        3.55060       -0.27580
H         -0.27120        3.14450        1.49380
H         -0.54280        4.53040        0.49270
H          1.07710        2.97330       -0.69950
H         -0.46640        3.25310       -1.55210
H          3.82990        1.15710        2.57950
H          2.61050       -1.64890        2.68880
H          3.08640       -0.50930        4.09650
H          5.54220       -1.62310       -2.34590
H          7.17350       -1.82330       -2.93110
H          6.50110       -0.16120       -2.91270
H          9.02260       -0.51080       -1.64840
H          8.69090       -2.16660       -1.21520
H         10.12170       -1.11580        0.45800
H          8.57380       -1.77400        1.03360
H          9.63720        2.03770        0.20810
H          8.17340        2.41950        1.12940
H          8.20990        1.32700       -1.75900
H          7.89410        2.90510       -1.24090
H          5.74270        3.60220       -0.89460
H          5.78520        2.83670        0.74360
H          4.44030        2.47950       -0.42280
H          4.89450       -2.09770        1.54850
H          5.63000       -1.88870        3.16480
H          6.62660       -2.49750        1.78890
H          6.65290        1.46120        2.58040
H          6.72810        0.11180        3.74670
H          8.80520       -0.69730        2.89350
H          9.01120        1.05350        3.02980
