49

P          1.27500        0.00000        0.00000
N          0.30220        1.41150       -0.47780
C         -1.13690        1.22200       -0.49620
C         -1.48360       -0.13390        0.09060
C         -3.01580       -0.25700        0.16020
C         -0.87120       -1.22700       -0.87110
N          0.57250       -1.05320       -1.20250
N          0.62690       -0.01280        1.62260
C         -0.85120       -0.21650        1.53960
Cu         3.73500        0.00030       -0.00050
Br         3.73510        1.96570        1.68640
C          3.73500       -1.63110       -1.40080
C          4.24920       -1.49890       -2.62200
C          5.88500        0.00060       -0.00090
N          6.73190        1.07100        0.04930
C          6.43120        2.49690       -0.00160
C          7.99080        0.55660        0.05510
C          9.27490        1.33970        0.06660
C          7.91060       -0.81420        0.02060
C          9.06300       -1.78340        0.02030
N          6.60830       -1.16370       -0.02210
C          6.12690       -2.55080        0.03000
H          0.63590        1.77270       -1.40160
H         -1.52120        1.30890       -1.54020
H         -1.59300        2.05040        0.08990
H         -3.45590       -0.14640       -0.85700
H         -3.43610        0.55620        0.79050
H         -3.31550       -1.23190        0.57990
H         -1.44120       -1.23300       -1.82860
H         -1.02130       -2.22400       -0.40600
H          0.68130       -0.58340       -2.13380
H          0.83620        0.91980        2.05060
H         -1.34790        0.53710        2.19330
H         -1.08930       -1.21310        1.96810
H          3.29740       -2.57690       -1.09660
H          4.69050       -0.55970       -2.93300
H          4.23450       -2.34130       -3.30730
H          5.36400        2.68200       -0.19550
H          6.96320        2.95290       -0.86220
H          6.76700        2.99190        0.93560
H          9.09950        2.43270        0.09180
H          9.86100        1.10030       -0.84690
H          9.86870        1.05830        0.96060
H         10.04170       -1.26400        0.03420
H          9.01510       -2.41030       -0.89740
H          9.00720       -2.43890        0.91410
H          6.94700       -3.26270        0.24250
H          5.73980       -2.88830       -0.94090
H          5.38240       -2.66230        0.84760
