71

P          1.06980        0.05760        0.04250
C          0.12700        1.59890       -0.21970
C         -0.77540        1.82900       -1.27840
C         -1.21040        3.13270       -1.56010
C         -0.72340        4.21510       -0.82110
C          0.13970        3.99180        0.24860
C          0.52860        2.69060        0.56980
C          0.81200       -0.77850       -1.53750
C          1.29790       -0.20610       -2.72210
C          1.03300       -0.80990       -3.95720
C          0.28060       -1.98610       -4.01520
C         -0.19610       -2.56900       -2.83850
C          0.07290       -1.97180       -1.60220
C          0.39920       -0.61580        1.59510
C         -0.99480       -0.88750        1.79180
C         -2.06320       -0.70260        0.75130
C         -1.43580       -1.34070        3.05390
C         -0.52060       -1.54480        4.09970
C          0.81820       -1.29000        3.90100
C          1.28550       -0.82190        2.66310
Cu         3.52980        0.05760        0.04250
Br         3.52980       -2.46060        0.64820
C          3.52980        2.14800       -0.46030
C          4.51570        2.82910       -1.04070
P          5.98980        0.05760        0.04250
C          7.21380        1.38390        0.45890
C          6.40290       -1.26220        1.19780
C          6.75140       -2.55620        0.78540
C          7.04410       -3.53730        1.74570
C          7.01600       -3.22350        3.10910
C          6.68820       -1.93090        3.52140
C          6.37480       -0.95930        2.57120
C          6.51170        0.06570       -1.70460
C          5.59920        0.11090       -2.77170
C          6.06400        0.11870       -4.08990
C          7.43890        0.09980       -4.36450
C          8.35100        0.03670       -3.30900
C          7.89380        0.00380       -2.00300
H         -1.11210        1.03030       -1.92150
H         -1.88380        3.31510       -2.38650
H         -1.00000        5.22870       -1.08470
H          0.54930        4.82910        0.80190
H          1.25150        2.55270        1.36730
H          1.86130        0.71700       -2.69500
H          1.39520       -0.35840       -4.87050
H          0.06400       -2.44510       -4.97280
H         -0.78440       -3.47710       -2.88760
H         -0.31850       -2.42890       -0.70320
H         -1.68000       -0.39740       -0.22930
H         -2.79880        0.06240        1.09170
H         -2.59320       -1.66130        0.59830
H         -2.48760       -1.53410        3.22230
H         -0.87620       -1.89000        5.05750
H          1.51930       -1.43610        4.71540
H          2.34160       -0.61350        2.54650
H          2.65690        2.73420       -0.37420
H          5.43380        2.38410       -1.33750
H          4.37170        3.87220       -1.30670
H          6.97810        1.70970        1.49520
H          7.12570        2.29990       -0.14990
H          8.26570        1.06260        0.48780
H          6.77100       -2.81040       -0.26510
H          7.29040       -4.54400        1.43780
H          7.24810       -3.97730        3.85160
H          6.67480       -1.67990        4.57510
H          6.11870        0.03590        2.91270
H          4.53540        0.13490       -2.57840
H          5.36720        0.15820       -4.91850
H          7.80890        0.12550       -5.37960
H          9.41920        0.02040       -3.50550
H          8.64230       -0.06240       -1.23080
