54

P          1.07780       -0.01100        0.06190
C         -0.20050       -1.04050       -0.73540
C          0.82240       -0.64040        1.74820
C          0.51210        1.58800       -0.63450
Cu         3.53780       -0.01100        0.06190
Br         3.48000        2.15050        1.30110
C          3.25470       -1.77820       -0.99130
C          2.81990       -1.69790       -2.24150
P          5.99780       -0.01100        0.06190
O          7.33810        1.05780       -0.08090
C          6.80630        2.33840       -0.51090
C          6.94660        3.37290        0.61810
C          7.51440        2.90300       -1.75420
O          5.99210        0.80360        1.57640
C          6.14400        0.06630        2.78270
C          6.77830       -1.33210        2.70750
C          6.99970        0.92910        3.73150
O          6.86450       -1.34770       -0.58930
C          6.43480       -1.66400       -1.90910
C          6.83810       -0.63520       -2.96740
C          6.95480       -3.05130       -2.28800
H         -1.22180       -0.78550       -0.39910
H          0.01510       -2.10910       -0.50730
H         -0.11930       -0.92340       -1.83770
H         -0.26490       -0.66940        1.97640
H          1.32050        0.02910        2.47700
H          1.24080       -1.66420        1.83380
H         -0.59750        1.62600       -0.54910
H          0.78470        1.63840       -1.70890
H          0.93540        2.42760       -0.07410
H          3.44130       -2.73780       -0.52980
H          2.62920       -0.72770       -2.69020
H          2.64650       -2.58800       -2.84130
H          5.72580        2.31710       -0.80900
H          7.99880        3.44540        0.94220
H          6.32360        3.11450        1.49240
H          6.59450        4.37570        0.28410
H          8.59920        3.03500       -1.58620
H          7.08500        3.90050       -2.01530
H          7.34970        2.27650       -2.65690
H          5.13570       -0.03170        3.23400
H          7.81790       -1.28640        2.31980
H          6.16360       -2.01440        2.08990
H          6.81350       -1.76240        3.73630
H          8.04150        1.02530        3.35070
H          7.03960        0.48630        4.75060
H          6.57500        1.95200        3.82190
H          5.36430       -1.76030       -1.96120
H          7.93600       -0.49470       -2.99180
H          6.32420        0.32360       -2.76870
H          6.48990       -0.97230       -3.96930
H          8.06300       -3.06530       -2.30740
H          6.57360       -3.34550       -3.29230
H          6.58990       -3.80470       -1.55650
