66

P          1.01340       -0.08950       -0.04260
C          0.53640       -1.66960       -0.81300
C         -0.78260       -2.14460       -0.68490
C         -1.17710       -3.35520       -1.24400
C         -0.25190       -4.13870       -1.92160
C          1.07430       -3.70280       -2.03550
C          1.46950       -2.47070       -1.48830
C          0.74550        0.05510        1.75700
C          1.48830        0.96170        2.51300
C          1.32150        1.06360        3.89810
C          0.38150        0.26440        4.54740
C         -0.37800       -0.64470        3.81190
C         -0.18290       -0.76570        2.43100
C         -0.25440        1.12060       -0.88700
C         -1.79840        1.00320       -0.73630
C         -2.28130        1.42610        0.66080
C         -1.86780        2.87550        0.98640
C         -0.38400        3.13030        0.74030
C          0.01290        2.64590       -0.65200
Cu         3.47340       -0.08950       -0.04260
Br         3.47340       -2.17740        1.48980
C          3.47340        1.64380       -1.31480
C          4.27410        1.79310       -2.37160
N          5.57340       -0.08950       -0.04260
C          6.40660        0.30640        1.01800
N          5.91780        0.79620        2.29510
C          4.53390        0.75090        2.65390
C          6.74410        1.39650        3.35110
C          7.80250        0.26930        0.79360
C          8.33390       -0.17740       -0.39930
C          7.49230       -0.64190       -1.39180
C          6.11630       -0.55970       -1.20180
H         -1.52450       -1.60720       -0.13270
H         -2.20640       -3.68800       -1.13800
H         -0.56200       -5.08630       -2.34350
H          1.79230       -4.32860       -2.54620
H          2.49940       -2.15270       -1.58040
H          2.18270        1.60930        2.00770
H          1.91410        1.76950        4.46470
H          0.23880        0.35220        5.61740
H         -1.11770       -1.25760        4.31210
H         -0.78590       -1.48370        1.90610
H         -0.04350        0.96070       -1.96790
H         -2.20700        0.04350       -1.06620
H         -2.26780        1.71160       -1.46060
H         -1.88030        0.73280        1.40650
H         -3.38890        1.36660        0.70890
H         -2.11690        3.12130        2.04230
H         -2.43090        3.56470        0.32430
H          0.20680        2.63330        1.49050
H         -0.16100        4.21340        0.85380
H          1.02370        2.94870       -0.85560
H         -0.58050        3.24190       -1.38370
H          2.90610        2.49330       -1.04750
H          4.95360        1.03250       -2.70140
H          4.28160        2.72710       -2.92190
H          3.94380        0.37120        1.85710
H          4.18290        1.77020        2.92470
H          4.40620        0.08800        3.54320
H          7.81700        1.50750        3.13660
H          6.65120        0.79550        4.27650
H          6.39100        2.42640        3.56410
H          8.54400        0.60680        1.51120
H          9.40530       -0.21330       -0.54080
H          7.90830       -1.04390       -2.30520
H          5.46620       -0.94100       -1.98170
