81

P          0.99480       -0.07770       -0.06280
C         -0.12000       -0.22400        1.37290
C          0.66820        1.67980       -0.41740
C          0.14660       -1.35800       -1.04310
Cu         3.45480       -0.07770       -0.06280
Br         3.45480        1.97130        1.52150
C          3.45480       -1.77850       -1.37790
C          4.16470       -2.87640       -1.34670
P          5.91480       -0.07770       -0.06280
C          6.73440       -0.86960        1.67420
C          6.73970       -2.34070        1.99220
C          6.59320       -3.47410        1.05130
C          6.93030       -2.87300        3.31710
C          7.17690       -2.05540        4.40520
C          7.29450       -2.50320        5.84440
C          7.34030       -0.75550        4.16930
C          7.21610       -0.14310        2.91410
C          7.54570        1.26620        3.20030
C          6.38160       -0.94260       -1.71670
C          5.58390       -0.59720       -2.88890
C          4.42890        0.40910       -2.93120
C          5.81200       -1.12900       -4.17440
C          6.85790       -1.98750       -4.42400
C          7.09260       -2.53190       -5.81220
C          7.72460       -2.27500       -3.39420
C          7.56370       -1.76500       -2.05440
C          8.77220       -2.09420       -1.18730
C          6.71890        1.87370        0.10750
C          6.51490        3.01180        1.08430
C          5.74430        3.06070        2.30400
C          7.07020        4.26960        1.03820
C          7.91040        4.69730        0.11930
C          8.34880        6.16470        0.29400
C          8.25530        3.76150       -0.86460
C          7.68580        2.40760       -0.89730
C          8.18260        1.60130       -2.05410
H         -1.18220       -0.04710        1.12510
H          0.21190        0.50350        2.14670
H          0.00810       -1.23820        1.81180
H         -0.43030        1.83860       -0.46190
H          1.10230        1.94710       -1.40130
H          1.06430        2.34550        0.36730
H         -0.94820       -1.14490       -1.01120
H          0.31700       -2.36680       -0.62050
H          0.44590       -1.30380       -2.10600
H          2.70310       -1.74680       -2.15510
H          4.85530       -2.96190       -0.59310
H          4.03780       -3.65710       -2.09070
H          6.67770       -3.15940        0.01000
H          5.69750       -4.07120        1.25930
H          7.48510       -4.12100        1.17110
H          6.88910       -3.92150        3.49940
H          7.21140       -3.58960        5.99910
H          6.50130       -1.99020        6.44010
H          8.27050       -2.14250        6.27130
H          7.59050       -0.18650        5.07300
H          8.23290        1.50940        4.03470
H          6.71670        1.57070        3.89090
H          8.11440        1.72780        2.38560
H          4.20240        0.87460       -1.96100
H          3.51480       -0.08210       -3.32860
H          4.66190        1.22010       -3.65300
H          5.16790       -0.85690       -5.00970
H          6.31550       -2.17810       -6.52100
H          7.07250       -3.64050       -5.80840
H          8.07600       -2.18650       -6.20190
H          8.57330       -2.90170       -3.65850
H          9.48420       -2.77350       -1.71220
H          8.60940       -2.61060       -0.24220
H          9.36520       -1.19410       -0.97320
H          5.53710        2.02180        2.42920
H          4.94820        3.81610        2.11140
H          6.22070        3.44460        3.23110
H          6.84120        5.00410        1.82590
H          7.77950        6.68450        1.11330
H          8.10150        6.78390       -0.58810
H          9.39780        6.26240        0.63240
H          8.95060        4.11210       -1.62460
H          8.92310        2.15510       -2.68340
H          7.34610        1.34340       -2.71870
H          8.70070        0.71260       -1.68140
