28

P          0.94610        0.05990       -0.05920
C         -0.19570        1.44560        0.27210
C          0.64700        0.00960       -1.85910
C          0.04030       -1.11490        1.00160
Cu         3.40610        0.05990       -0.05920
Br         3.40610        1.89480       -1.88720
C          3.40610       -1.46320        1.45820
C          2.91990       -2.68500        1.25990
O          5.45610        0.05990       -0.05920
C          6.25450        0.82600       -0.78000
N          7.55440        0.56290       -0.54740
C          7.53360       -0.42850        0.36210
C          6.22220       -0.72910        0.66160
H         -1.24410        1.22270       -0.00060
H          0.15410        2.32810       -0.30890
H         -0.12680        1.71880        1.34720
H         -0.44650       -0.03830       -2.04430
H          1.11970       -0.89300       -2.29420
H          1.01060        0.91530       -2.37080
H         -1.05020       -1.00990        0.79040
H          0.20940       -0.89970        2.07380
H          0.30090       -2.15770        0.74850
H          3.81610       -1.20780        2.43020
H          2.49590       -2.96410        0.30350
H          2.93780       -3.40670        2.07190
H          5.94670        1.59510       -1.46830
H          8.41380       -0.90150        0.75840
H          5.91910       -1.49990        1.34510
