66

P          1.27500        0.00000        0.00000
N          0.26420        1.48160       -0.21330
C          0.82860        2.66070        0.51370
C          0.20070        3.98830        0.06450
C          0.70830        2.57920        2.06210
C         -1.17370        1.34580       -0.09620
C         -1.52240       -0.08680        0.12510
C         -3.05620       -0.19290        0.20470
C         -1.00280       -0.89560       -1.10070
N          0.49060       -1.09060       -1.23240
C          0.70200       -2.59050       -1.07450
C          0.11900       -3.38380       -2.27860
C          2.12810       -3.12210       -0.92030
N          0.63120       -0.37920        1.62000
C          1.22400       -1.60810        2.26550
C          2.74540       -1.55440        2.45990
C          0.60950       -1.89110        3.65460
C         -0.86370       -0.56360        1.47950
Cu         3.73500        0.00030       -0.00050
Br         3.76060        1.72650        1.80370
C          3.90210       -1.09600       -1.77240
C          3.33610       -0.67970       -2.90280
N          5.83500        0.00060       -0.00090
C          6.53760        1.16310        0.23040
F          5.92120        2.35940        0.34010
C          7.93390        1.18590        0.21090
C          8.63890        0.01140        0.00100
F          9.99470        0.01900       -0.00010
C          7.94210       -1.17090       -0.20180
C          6.54350       -1.15950       -0.21870
F          5.92660       -2.35910       -0.30070
H          1.89040        2.74940        0.22330
H         -0.86010        4.06780        0.37560
H          0.28070        4.10550       -1.03500
H          0.75040        4.83250        0.54670
H         -0.34060        2.55850        2.41310
H          1.20500        3.45910        2.52480
H          1.20640        1.70540        2.50790
H         -1.63080        1.72610       -1.03700
H         -1.59660        1.94960        0.73240
H         -3.51660        0.14470       -0.75140
H         -3.46160        0.44110        1.01840
H         -3.37480       -1.24100        0.38280
H         -1.39490       -0.47870       -2.05190
H         -1.55030       -1.86140       -0.98630
H          0.16730       -2.94590       -0.17520
H          0.62140       -3.07680       -3.22020
H         -0.97030       -3.26640       -2.42100
H          0.28090       -4.47500       -2.13260
H          2.63850       -3.13360       -1.90000
H          2.10900       -4.19480       -0.63130
H          2.69450       -2.61290       -0.13090
H          1.01460       -2.49170        1.65040
H          3.03230       -0.76900        3.18530
H          3.28980       -1.39220        1.52530
H          3.09730       -2.53960        2.84310
H          0.84490       -1.07060        4.36230
H          1.02360       -2.84280        4.06000
H         -0.48820       -2.02820        3.62960
H         -1.33500       -0.00610        2.31750
H         -1.16400       -1.62570        1.57850
H          4.48110       -1.99770       -1.85650
H          2.74810        0.22700       -2.93190
H          3.47100       -1.26440       -3.81060
H          8.46440        2.12040        0.34650
H          8.48240       -2.10010       -0.33060
