51

C          0.90100       -0.64300       -0.00200
N         -0.37840       -1.10940        0.03480
C         -0.89400       -2.50000        0.10150
C          0.23980       -3.52840        0.21990
C         -1.80520       -2.64990        1.33960
C         -1.70310       -2.81680       -1.17110
C         -1.15370       -0.00410        0.00510
C         -0.34820        1.10800       -0.03620
N          0.94050        0.71330       -0.03790
C          2.11280        1.62620       -0.05140
C          2.07460        2.52920        1.19780
C          3.44590        0.85520       -0.04420
C          2.06350        2.50480       -1.31810
Cu         2.65840       -1.88140       -0.01350
Br         2.65920       -1.85640       -2.60340
C          2.65790       -1.90230        2.13640
C          3.24610       -2.32880        3.27920
O          4.33420       -3.06230       -0.02450
C          4.73770       -3.79270        1.09030
C          3.63380       -4.79320        1.50420
C          5.97420       -4.63570        0.75980
H          0.77410       -3.36060        1.16740
H          0.94360       -3.45900       -0.63390
H         -0.16490       -4.56420        0.24920
H         -1.23950       -2.41400        2.26720
H         -2.19890       -3.68610        1.42190
H         -2.67590       -1.96350        1.28320
H         -1.05640       -2.73280       -2.07070
H         -2.55940       -2.11980       -1.28510
H         -2.10830       -3.85160       -1.12810
H         -2.23610        0.00130        0.01870
H         -0.68860        2.13510       -0.05520
H          2.10850        1.91330        2.12220
H          1.14960        3.14290        1.22230
H          2.94360        3.22510        1.20960
H          3.53950        0.23890        0.86970
H          4.30790        1.55670       -0.06250
H          3.52890        0.20540       -0.93360
H          1.13500        3.11380       -1.34480
H          2.09880        1.87550       -2.22950
H          2.92810        3.20770       -1.33930
H          1.80120       -1.29400        2.41120
H          4.10010       -2.95210        3.44570
H          2.80760       -2.02270        4.22440
H          5.14010       -3.06770        1.80030
H          3.44830       -5.52490        0.68890
H          2.66120       -4.32850        1.69770
H          3.92780       -5.34250        2.42280
H          5.74930       -5.39790       -0.01730
H          6.30840       -5.16800        1.68010
H          6.81100       -3.99840        0.40920
