38

C          1.02400       -0.65300       -0.05500
N          1.00010        0.62010       -0.24500
C          2.13620        1.43890       -0.60400
C         -0.32670        1.15610       -0.06270
C         -1.21730       -0.08170        0.10290
N         -0.26680       -1.15770        0.19770
C         -0.61720       -2.53290        0.47430
Cu         2.78020       -1.86970       -0.29550
Br         1.61920       -3.16640       -2.21350
C          3.74390       -0.79340        1.29670
C          3.18390        0.16740        2.04180
N          4.49560       -3.05820       -0.53040
C          5.73650       -2.71110       -0.03940
C          6.89130       -3.43720       -0.35640
C          6.79350       -4.61170       -1.09370
C          8.00110       -5.42360       -1.44830
C          5.54230       -5.01540       -1.52710
C          4.43440       -4.20530       -1.28890
H          3.05940        0.83050       -0.72960
H          2.31270        2.20940        0.18190
H          1.93590        1.95580       -1.56270
H         -0.65690        1.76100       -0.93820
H         -0.32590        1.78200        0.85930
H         -1.83730       -0.25710       -0.80920
H         -1.86070        0.00070        1.00200
H         -1.71290       -2.62550        0.63110
H         -0.09700       -2.87110        1.39380
H         -0.34570       -3.19040       -0.36750
H          4.69630       -1.04980        1.70050
H          2.18330        0.53240        1.90560
H          3.74550        0.60090        2.86620
H          5.95100       -1.79300        0.44230
H          7.85980       -3.06520       -0.04360
H          8.93920       -4.89900       -1.17020
H          8.01690       -5.60010       -2.54620
H          7.96020       -6.40110       -0.92520
H          5.42130       -5.94090       -2.07860
H          3.52270       -4.60760       -1.65480
