57

C          0.90100       -0.64300       -0.00200
N          0.20040       -0.27800       -1.10030
C          0.49270       -0.61680       -2.49950
C         -0.65000       -1.42270       -3.11750
C         -0.81470        0.48190       -0.65740
C         -0.71120        0.60240        0.71090
N          0.36840       -0.10090        1.11140
C          0.88600       -0.20650        2.47260
C         -0.15790       -0.79920        3.41140
Cu         2.65840       -1.88140       -0.01350
Br         4.12730        0.20710       -0.44780
C          1.43910       -3.61510        0.34700
C          0.10340       -3.60310        0.35860
C          4.41590       -3.11990       -0.02500
N          4.46690       -4.46370       -0.17590
C          3.49640       -5.56640       -0.50740
C          3.59360       -6.02020       -1.97430
C          3.62130       -6.73580        0.51020
C          5.83580       -4.93460       -0.10780
C          6.65800       -3.75000       -0.42470
N          5.82930       -2.66430       -0.00760
C          6.43670       -1.40940        0.44850
C          5.89120       -1.03020        1.83660
C          7.97740       -1.39350        0.50420
H          1.42380       -1.21300       -2.55850
H          0.62560        0.32000       -3.06760
H         -0.77600       -2.39170       -2.59420
H         -0.40890       -1.63000       -4.18780
H         -1.60510       -0.85860       -3.08740
H         -1.57660        0.93610       -1.28480
H         -1.37150        1.16090        1.36020
H          1.16070        0.80800        2.83260
H          1.79900       -0.83970        2.48360
H         -1.05650       -0.15110        3.44880
H          0.26390       -0.87300        4.43550
H         -0.45090       -1.81350        3.06130
H          1.85910       -4.47910        0.77020
H         -0.47540       -2.74710        0.04870
H         -0.43850       -4.48830        0.67960
H          2.47590       -5.37220       -0.68480
H          4.56920       -6.41670       -2.27270
H          3.33100       -5.13930       -2.61390
H          2.81270       -6.79960       -2.18190
H          4.59800       -7.25930        0.42620
H          2.82230       -7.49430        0.36410
H          3.53350       -6.35130        1.55100
H          6.09350       -5.77100       -0.78570
H          6.02190       -5.24180        0.94770
H          6.76700       -3.67250       -1.53490
H          7.65950       -3.86580        0.05610
H          6.32600       -0.66970       -0.34130
H          6.21870       -1.77170        2.59150
H          4.78110       -1.02430        1.85480
H          6.24700       -0.01940        2.12270
H          8.36960       -2.08950        1.27090
H          8.32310       -0.36760        0.75680
H          8.40880       -1.64070       -0.49430
