68

P          1.27500        0.00000        0.00000
N          0.26950        1.48780       -0.21630
C          0.83560        2.66050        0.52010
C          0.24380        3.99740        0.05080
C          0.67540        2.59400        2.06720
C         -1.17180        1.36320       -0.11410
C         -1.53170       -0.05520        0.13840
C         -3.07400       -0.14670        0.22170
C         -1.03700       -0.88230       -1.09040
N          0.44460       -1.13280       -1.18630
C          0.55060       -2.66100       -1.01380
C         -0.02320       -3.39710       -2.26280
C          1.89340       -3.36660       -0.76870
N          0.64330       -0.37270        1.63080
C          1.20340       -1.62230        2.24990
C          2.73130       -1.61740        2.40560
C          0.61220       -1.90880        3.64310
C         -0.86220       -0.51840        1.49890
Cu         3.73500        0.00030       -0.00050
Br         3.73510        1.74330        1.91530
C          3.73490       -1.44660       -1.59080
C          3.18950       -1.15300       -2.77130
N          5.83500        0.00060       -0.00090
C          6.40800        1.31820        0.37420
C          6.18870       -0.86550        1.14270
C          6.46310       -0.50630       -1.23770
H          1.90790        2.72490        0.25280
H         -0.82320        4.09650        0.33860
H          0.34690        4.11280       -1.04520
H          0.79500        4.83140        0.54270
H         -0.38180        2.59890        2.38960
H          1.17590        3.46820        2.53420
H          1.14450        1.71410        2.53130
H         -1.61770        1.73080       -1.06320
H         -1.59920        1.99190        0.69560
H         -3.53180        0.18600       -0.73510
H         -3.46410        0.50640        1.03380
H         -3.40280       -1.18610        0.42170
H         -1.39230       -0.43730       -2.04670
H         -1.63830       -1.80940       -1.00050
H         -0.05910       -2.97510       -0.14060
H          0.56020       -3.12040       -3.16660
H         -1.08670       -3.18870       -2.47480
H          0.04040       -4.50270       -2.13620
H          2.45710       -3.49220       -1.71150
H          1.71340       -4.42390       -0.47340
H          2.48350       -2.93960        0.05020
H          0.94770       -2.48910        1.62950
H          3.05720       -0.85100        3.13290
H          3.24760       -1.46020        1.45190
H          3.05920       -2.61640        2.76510
H          0.87500       -1.11340        4.35800
H          1.00250       -2.88320        4.01870
H         -0.49470       -2.02360        3.63160
H         -1.32450        0.05250        2.32900
H         -1.19030       -1.57850        1.60650
H          4.25090       -2.38830       -1.44110
H          2.70610       -0.19650       -2.92520
H          3.22690       -1.87460       -3.58190
H          6.24560        1.61590        1.42670
H          6.00420        2.10350       -0.29870
H          7.51680        1.32120        0.26980
H          5.71120       -0.51090        2.08200
H          7.29100       -0.93560        1.28960
H          5.79780       -1.89090        0.96760
H          6.08330        0.05890       -2.11460
H          6.28920       -1.58980       -1.38100
H          7.57020       -0.39700       -1.20450
