46

C          1.02400       -0.65300       -0.05500
N          0.93840        0.53610       -0.51330
C          2.02410        1.24040       -1.15490
C         -0.35590        1.11810       -0.23880
C         -1.16820       -0.05170        0.34740
N         -0.16850       -1.06640        0.55590
C         -0.39820       -2.35040        1.16560
Cu         2.78020       -1.86970       -0.29550
Br         1.88180       -2.71640       -2.57230
C          3.52600       -1.16690        1.59460
C          2.89490       -0.30660        2.39740
C          4.53640       -3.08650       -0.53600
N          5.79840       -2.65740       -0.35490
C          6.23600       -1.27770       -0.16600
C          6.59660       -3.70120       -0.64550
C          5.79590       -4.77940       -0.97270
N          4.50200       -4.39050       -0.90930
C          3.35470       -5.26960       -0.85090
C          2.21040       -4.87510       -0.12330
C          1.14040       -5.75410        0.07260
C          1.19670       -7.04250       -0.44790
C          2.32530       -7.45860       -1.15380
C          3.40220       -6.58770       -1.34730
H          2.93220        0.60270       -1.22790
H          2.27760        2.14300       -0.55790
H          1.71800        1.55500       -2.17360
H         -0.84260        1.52720       -1.15000
H         -0.21320        1.92040        0.51830
H         -1.89010       -0.44870       -0.40200
H         -1.69370        0.24400        1.27890
H         -1.45030       -2.42800        1.51480
H          0.27710       -2.47270        2.03830
H         -0.20990       -3.15000        0.42490
H          4.48620       -1.54710        1.92440
H          1.93400        0.12150        2.15610
H          3.35610       -0.01550        3.33580
H          5.36960       -0.58510       -0.14230
H          6.82340       -0.97530       -1.06600
H          6.86760       -1.16890        0.73270
H          7.67960       -3.68050       -0.63350
H          6.14570       -5.78200       -1.17410
H          2.14400       -3.89780        0.33530
H          0.27430       -5.44550        0.64920
H          0.37410       -7.72690       -0.28240
H          2.37360       -8.46660       -1.53660
H          4.27470       -6.94260       -1.86830
