47

P          0.93810        0.05520       -0.05590
C          0.11270       -0.33790        1.60990
C         -1.40160       -0.24880        1.85620
C          0.54760       -1.71930        2.14170
C          0.57900        1.85560       -0.41570
C         -0.91640        2.21500       -0.54900
C          1.23280        2.80620        0.58360
C          0.45000       -1.29900       -1.27050
C          0.90730       -2.71780       -0.92000
C         -1.05450       -1.33180       -1.59100
Cu         3.39810        0.05520       -0.05590
Br         3.27500        0.34030       -2.53040
C          3.40920       -0.17490        2.01160
C          3.87410       -1.30350        2.55990
O          5.44810        0.05520       -0.05590
C          6.20250        0.13270       -1.14780
C          7.53070        0.10620       -0.78700
C          7.55990        0.02270        0.58330
C          6.24590       -0.00300        0.99770
H          0.58340        0.40310        2.28870
H         -1.97460       -0.99290        1.28190
H         -1.82920        0.74490        1.72800
H         -1.59260       -0.48100        2.92890
H         -0.10800       -2.52590        1.77710
H          0.45900       -1.75110        3.24910
H          1.57930       -1.97850        1.86990
H          1.02510        2.05440       -1.41270
H         -1.42940        2.22410        0.41890
H         -1.45760        1.56820       -1.25140
H         -1.02750        3.25160       -0.92300
H          0.83510        2.64450        1.60560
H          1.01200        3.85670        0.28930
H          2.33300        2.67070        0.57630
H          0.95040       -1.04310       -2.22170
H          0.30120       -3.17170       -0.12270
H          1.98210       -2.74480       -0.66370
H          0.73490       -3.37890       -1.79810
H         -1.66460       -1.59030       -0.71010
H         -1.27400       -2.09990       -2.36100
H         -1.40370       -0.37810       -2.01650
H          3.03450        0.61940        2.64570
H          4.24990       -2.09730        1.92120
H          3.88100       -1.44060        3.63550
H          5.85350        0.19260       -2.15830
H          8.37810        0.14880       -1.45590
H          8.43670       -0.00630        1.21160
H          5.96170       -0.04380        2.03240
