62

P         -1.08430        0.05740        1.16670
N         -1.13870       -1.17640       -0.24560
C         -2.29970       -1.05130       -1.17830
C          0.01700       -1.47180       -1.09600
C          1.31270       -1.26680       -0.41470
N          2.01210        0.12280       -0.46610
C          1.33110        1.52830       -0.33770
C         -0.06530        1.70390       -0.92670
N         -1.28660        1.44810       -0.05140
C         -1.59030        2.63480        0.75430
N          0.43460       -0.17650        2.19690
C          0.40790       -1.14640        3.24500
C          1.92510        0.06990        1.99360
C          2.85710        0.04610        0.73050
Cu        -3.39110       -0.15080        2.40590
Br        -2.74380        1.90770        3.85570
C         -3.90070       -1.71940        1.12890
C         -5.07550       -1.77470        0.57030
N         -5.30970       -0.35120        3.45580
C         -6.72640       -0.80600        4.01070
C         -4.71550       -1.30300        4.31160
C         -6.06230        0.66290        2.57530
C         -5.26240        1.43800        1.73490
C         -5.77020        2.19800        0.70470
C         -7.13380        2.22450        0.48080
C         -8.01810        1.53310        1.29220
C         -7.48850        0.78570        2.33140
H         -3.25900       -0.84920       -0.78610
H         -2.43210       -1.96940       -1.77870
H         -2.20360       -0.19580       -1.83310
H          0.02760       -0.93220       -2.03420
H         -0.07820       -2.56420       -1.32050
H          1.94070       -2.16190       -0.15110
H          0.94040       -1.64680        0.53570
H          2.02800        2.34360        0.02200
H          1.03330        1.95130        0.65820
H         -0.04420        1.07820       -1.80280
H         -0.09160        2.74120       -1.31400
H         -1.76150        3.51530        0.10310
H         -0.84370        2.78060        1.55170
H         -2.48740        2.50600        1.35460
H         -0.16440       -0.65330        4.00420
H          1.39790       -1.19230        3.82750
H          0.48030       -2.10650        2.70050
H          1.17200        0.25660        1.42310
H          2.29430       -0.95260        2.03450
H          3.61690       -0.81490        0.64550
H          3.63180        0.83350        0.84470
H         -3.27110       -2.50910        0.70370
H         -5.74630       -0.98800        0.80100
H         -5.24830       -2.61000       -0.11170
H         -6.87920       -1.47180        4.89740
H         -7.44480       -1.41750        3.39080
H         -7.10120       -0.04090        4.65360
H         -3.67000       -1.47720        4.49480
H         -5.09880       -2.34320        4.13160
H         -4.85590       -0.87220        5.33360
H         -4.23940        1.42600        1.71800
H         -5.09110        2.68830       -0.00150
H         -7.51480        2.77400       -0.36750
H         -9.03690        1.43570        1.05880
H         -8.26950        0.21140        2.83500
