82

P          1.27500        0.00000        0.00000
N          0.32550        1.54670       -0.06820
C          0.72120        2.57700        0.97680
C          0.12680        3.97030        0.68660
C          0.41480        2.23710        2.45310
C         -1.11300        1.43150       -0.29250
C         -1.54990        0.00410       -0.15510
C         -3.09510       -0.04920       -0.24900
C         -0.93450       -0.82430       -1.30910
N          0.56260       -0.82960       -1.43660
C          1.03380       -2.25800       -1.48370
C          0.27780       -3.21280       -2.46030
C          2.48000       -2.32570       -1.95610
N          0.38110       -0.38100        1.52000
C          0.89190       -1.43430        2.43580
C          2.25360       -1.04050        3.02490
C         -0.03000       -1.64340        3.67730
C         -1.07930       -0.55060        1.22390
Cu         3.73500        0.00030       -0.00050
Br         3.81630       -2.45580        0.75130
C          3.76120        2.06200       -0.49190
C          2.89910        2.70220       -1.28480
C          5.88500        0.00060       -0.00090
N          6.66740       -1.02500       -0.50800
C          6.32480       -2.19020       -1.35630
C          5.80290       -1.66310       -2.69790
C          7.51170       -3.13280       -1.63620
C          7.95610       -0.64830       -0.29420
C          7.97120        0.55140        0.30600
N          6.71390        0.98120        0.50180
C          6.47310        2.19380        1.31320
C          7.08750        2.00490        2.71540
C          7.07900        3.42890        0.62370
H          1.81140        2.71700        0.95890
H         -0.97090        4.00730        0.84380
H          0.36450        4.29190       -0.34540
H          0.56180        4.71320        1.39160
H         -0.65770        2.01940        2.62560
H          0.70330        3.08160        3.11440
H          1.04710        1.41900        2.81920
H         -1.35610        1.82750       -1.30130
H         -1.68540        2.03110        0.44420
H         -3.44190        0.34130       -1.23150
H         -3.56070        0.57780        0.54380
H         -3.47080       -1.08640       -0.12970
H         -1.35160       -0.49340       -2.28440
H         -1.35530       -1.82130       -1.09300
H          0.93470       -2.68890       -0.45910
H          0.40890       -2.88030       -3.51040
H         -0.80380       -3.35600       -2.29110
H          0.69910       -4.23860       -2.36040
H          2.58030       -2.11800       -3.03500
H          2.88500       -3.34420       -1.74160
H          3.07400       -1.55100       -1.47030
H          0.95800       -2.38470        1.86760
H          2.17080       -0.24280        3.78470
H          2.92270       -0.62190        2.26260
H          2.70760       -1.93280        3.51160
H         -0.06010       -0.71430        4.29390
H          0.35690       -2.46590        4.31130
H         -1.07820       -1.90190        3.43320
H         -1.64330       -0.02320        2.02530
H         -1.37850       -1.62170        1.25390
H          4.57430        2.68560       -0.22860
H          2.03720        2.22730       -1.72090
H          3.06390        3.76020       -1.48940
H          5.58950       -2.84330       -0.90060
H          6.59690       -1.07190       -3.20590
H          4.93800       -0.99350       -2.54570
H          5.50310       -2.49950       -3.36440
H          8.32430       -2.62290       -2.19600
H          7.17920       -3.99410       -2.25480
H          7.91490       -3.53290       -0.68040
H          8.84140       -1.20040       -0.57850
H          8.87740        1.06930        0.60950
H          5.40510        2.33770        1.54810
H          8.18100        1.81780        2.67620
H          6.60160        1.14090        3.21920
H          6.91790        2.90820        3.33770
H          8.15860        3.28380        0.39220
H          6.99570        4.32320        1.27600
H          6.56640        3.65680       -0.33320
