63

C          0.90100       -0.64300       -0.00200
N         -0.37960       -1.10870       -0.02120
C         -0.90240       -2.49470       -0.12060
C          0.23200       -3.51570       -0.25310
C         -1.72400       -2.84100        1.13540
C         -1.80290       -2.60990       -1.37010
C         -1.15780       -0.00630        0.03300
C         -0.35740        1.10640        0.07170
N          0.93780        0.72110        0.03320
C          2.11400        1.63170        0.09310
C          2.48950        1.88650        1.56290
C          3.31810        1.02380       -0.64020
C          1.80370        2.99230       -0.57510
Cu         2.65840       -1.88140       -0.01350
Br         2.64630       -1.87460       -2.60350
C          2.66850       -1.88710        2.13650
C          1.74860       -1.31190        2.91500
C          4.41590       -3.11990       -0.02500
N          5.51510       -2.84340       -0.64440
C          5.78180       -1.58540       -1.33340
C          7.21290       -1.44210       -1.85030
C          6.50900       -3.87620       -0.41430
C          5.86540       -4.80400        0.60910
N          4.52720       -4.28440        0.76890
C          3.39410       -5.16040        0.99830
C          2.89170       -5.78020       -0.31090
H          0.89480       -3.45430        0.62590
H          0.81470       -3.32640       -1.17050
H         -0.16950       -4.55120       -0.32060
H         -1.08140       -2.81850        2.04060
H         -2.15980       -3.86120        1.04390
H         -2.56060       -2.12580        1.27820
H         -1.22920       -2.35200       -2.28710
H         -2.67290       -1.92310       -1.30140
H         -2.19910       -3.64250       -1.48100
H         -2.23900       -0.00400        0.03790
H         -0.71730        2.12390        0.12350
H          2.78870        0.94660        2.06100
H          1.62830        2.32060        2.11450
H          3.34690        2.59020        1.63780
H          3.60960        0.07590       -0.16080
H          4.19850        1.70150       -0.59700
H          3.07420        0.84740       -1.70760
H          1.00030        3.53800       -0.03880
H          1.49660        2.84750       -1.63270
H          2.70060        3.65050       -0.55860
H          3.48580       -2.41120        2.62080
H          0.89980       -0.77740        2.51610
H          1.84420       -1.37600        3.99400
H          5.62960       -0.75680       -0.60640
H          5.12330       -1.44240       -2.19400
H          7.95060       -1.51570       -1.02300
H          7.33700       -0.44080       -2.31430
H          7.42450       -2.21730       -2.61530
H          7.44520       -3.46100        0.02240
H          6.72270       -4.38990       -1.37700
H          6.37220       -4.68900        1.59250
H          5.89490       -5.86870        0.29460
H          2.57840       -4.59870        1.48700
H          3.69270       -5.97800        1.68930
H          2.56220       -4.99040       -1.01700
H          2.02870       -6.44850       -0.10560
H          3.69130       -6.37480       -0.80100
