52

C          1.02400       -0.65300       -0.05500
N          0.41160       -0.38970        1.05430
C          0.65840       -0.87610        2.40810
C          1.82200       -1.83790        2.56700
C         -0.71250        0.49350        0.82300
C         -0.46300        1.01520       -0.58600
N          0.44670        0.04900       -1.14540
C          0.27050       -0.52410       -2.45990
C          0.89450        0.36230       -3.52630
Cu         2.78020       -1.86970       -0.29550
Br         4.27250        0.22760       -0.00850
C          1.54140       -3.61070       -0.53370
C          0.20500       -3.58300       -0.47780
P          4.78960       -3.26190       -0.57060
C          6.38160       -3.00080        0.31430
C          4.38970       -4.98980       -0.13990
C          5.60610       -2.84290       -2.21350
C          6.09510       -1.39750       -2.38060
C          6.77960       -3.83480       -2.49390
C          4.56110       -3.13140       -3.30830
H         -0.26180       -1.38060        2.77920
H          0.84750        0.00870        3.06210
H          1.62990       -2.77050        2.00440
H          1.90440       -2.10550        3.64460
H          2.76920       -1.37050        2.24350
H         -0.76290        1.34630        1.54350
H         -1.64100       -0.11650        0.87330
H          0.10630        1.96880       -0.51400
H         -1.39580        1.19920       -1.17230
H         -0.82300       -0.60130       -2.67350
H          0.69290       -1.54350       -2.51060
H          0.45180        1.38120       -3.49290
H          0.69090       -0.07530       -4.52800
H          1.99050        0.42660       -3.37410
H          1.94550       -4.57800       -0.71190
H         -0.36140       -2.68300       -0.30060
H         -0.36010       -4.50020       -0.60860
H          6.11900       -3.09460        1.39140
H          6.81110       -1.99070        0.23570
H          7.12280       -3.80470        0.16710
H          3.95470       -4.99550        0.88610
H          5.32470       -5.58230       -0.10750
H          3.73920       -5.50030       -0.86480
H          6.86350       -1.10550       -1.64510
H          5.24270       -0.69970       -2.33890
H          6.57060       -1.27660       -3.37670
H          7.65430       -3.71390       -1.83090
H          7.18770       -3.70120       -3.51640
H          6.42750       -4.88950       -2.41000
H          3.67740       -2.47050       -3.20020
H          4.21530       -4.18890       -3.25710
H          4.99920       -2.97510       -4.31970
