35

C          1.02400       -0.65300       -0.05500
N          1.01880        0.61290       -0.23320
C          2.19020        1.40310       -0.53300
C         -0.30150        1.16460       -0.03410
C         -1.20320       -0.07840        0.07410
N         -0.25250       -1.14130        0.26290
C         -0.56840       -2.49190        0.65640
Cu         2.78020       -1.86970       -0.29550
Br         2.07090       -2.47260       -2.58290
C          3.32200       -1.30600        1.64870
C          4.29160       -1.90460        2.33470
N          4.49560       -3.05820       -0.53040
C          4.34110       -4.37940       -0.81980
F          3.09870       -4.92340       -0.81900
C          5.46000       -5.21280       -0.90700
C          6.73490       -4.65000       -0.84730
F          7.83180       -5.43300       -0.99420
C          6.87580       -3.27780       -0.63710
C          5.73460       -2.50130       -0.41350
F          5.85430       -1.15930       -0.25680
H          3.09610        0.76550       -0.62270
H          2.35360        2.14010        0.28190
H          2.03760        1.94880       -1.48750
H         -0.63400        1.82630       -0.86250
H         -0.28300        1.72570        0.92660
H         -1.71870       -0.28070       -0.89220
H         -1.93850        0.02680        0.89840
H         -1.66310       -2.59720        0.81850
H         -0.05580       -2.71760        1.61690
H         -0.23760       -3.20980       -0.11920
H          2.69050       -0.59460        2.17020
H          4.89870       -2.69790        1.92520
H          4.45670       -1.65920        3.37890
H          5.33960       -6.28370       -1.01700
H          7.85780       -2.82200       -0.64500
