57

P         -1.35000        0.00100        0.79800
N         -1.06460       -1.14700       -0.57720
C         -2.31930       -1.26650       -1.33780
C          0.06620       -1.16770       -1.53240
C          1.40850       -0.98020       -0.89730
N          1.45450        0.22590       -0.06260
C          1.14440        1.59870       -0.50830
C         -0.31500        1.84400       -1.00760
N         -1.43730        1.55130       -0.07170
C         -1.64980        2.64110        0.88490
N         -0.16500       -0.64510        1.98090
C         -0.13670       -2.08820        2.23580
C          1.03290        0.15640        2.29950
C          2.10780        0.05330        1.23270
Cu        -3.32260        0.00260        2.26790
Br        -4.83770        0.52790        0.23400
C         -2.06490       -0.43350        3.95620
C         -1.51680        0.56410        4.64420
C         -5.04660        0.00400        3.55250
N         -5.26390       -0.88040        4.55120
C         -4.59150       -2.15530        4.75010
C         -6.43640       -0.53370        5.11530
C         -6.90640        0.58590        4.48790
N         -6.05240        0.90560        3.48530
C         -6.03690        2.19720        2.79600
H         -3.16320       -1.51030       -0.66290
H         -2.27010       -2.09880       -2.07290
H         -2.53630       -0.32280       -1.88730
H         -0.06570       -0.50790       -2.39630
H          0.08660       -2.17820       -2.00920
H          2.22330       -0.99230       -1.65030
H          1.54810       -1.89290       -0.27540
H          1.85930        1.88470       -1.30840
H          1.31020        2.30480        0.33070
H         -0.52150        1.36990       -1.96900
H         -0.36450        2.91170       -1.31160
H         -1.79980        3.59880        0.34150
H         -0.78960        2.74850        1.57550
H         -2.57810        2.45670        1.46470
H         -1.15320       -2.52030        2.12310
H          0.18580       -2.26350        3.28600
H          0.56880       -2.61690        1.57160
H          0.73010        1.21630        2.39980
H          1.47230       -0.15010        3.27540
H          2.61150       -0.93670        1.30880
H          2.90920        0.81060        1.38490
H         -1.87360       -1.45010        4.27440
H         -1.69500        1.59070        4.34630
H         -0.88610        0.35220        5.50200
H         -3.82320       -2.32530        3.97270
H         -5.33010       -2.96770        4.54740
H         -4.20600       -2.26900        5.77770
H         -6.93240       -1.08160        5.90800
H         -7.79890        1.14850        4.73820
H         -6.81510        2.87300        3.20990
H         -6.18300        2.13180        1.71660
H         -5.06200        2.69650        3.02190
