57

C          2.32700        0.03400        0.00000
N          1.50710        1.11000        0.20820
C          1.87290        2.53430        0.29920
C          2.65330        3.02750       -0.95290
C          1.89650        2.91210       -2.29980
C          2.71870        3.50990       -3.45350
C          0.24480        0.61970        0.13150
C          0.29410       -0.72210       -0.13230
C         -0.89130       -1.48690       -0.22400
C         -2.12360       -0.84880       -0.07820
C         -2.17180        0.53620        0.13340
C         -0.98560        1.28960        0.24440
N          1.57870       -1.11890       -0.26260
C          1.93640       -2.54450       -0.58560
C          2.70480       -3.33090        0.47190
C          3.01830       -4.78000       -0.01130
C          1.78580       -5.63440       -0.36150
Cu         4.47690        0.05800        0.00140
Br         4.46140        1.30240        2.27290
C          4.48970       -0.97490       -1.88420
C          3.42670       -0.98740       -2.69860
N          6.57670        0.08150        0.00280
C          7.35400       -0.39800       -1.04010
C          8.74700       -0.47540       -0.99370
C          9.42640        0.00690        0.10130
Cl        11.17790       -0.07620        0.16270
C          8.69780        0.55450        1.13940
C          7.29550        0.56170        1.08480
H          2.46930        2.72390        1.20340
H          0.96730        3.16670        0.38280
H          3.61150        2.47410       -1.03690
H          2.88560        4.10410       -0.79660
H          0.92990        3.45880       -2.24930
H          1.68740        1.84670       -2.53150
H          2.90580        4.59270       -3.28250
H          2.17200        3.40750       -4.41670
H          3.69620        2.99130       -3.55440
H         -0.90480       -2.55420       -0.39650
H         -3.03050       -1.42730       -0.15070
H         -3.13360        1.01840        0.22480
H         -1.05700        2.35200        0.41250
H          2.46630       -2.67760       -1.52050
H          1.02630       -3.11900       -0.78230
H          2.11460       -3.37380        1.41040
H          3.67490       -2.82430        0.67700
H          3.57470       -5.30510        0.79280
H          3.67300       -4.75120       -0.91210
H          1.07970       -5.67890        0.49310
H          2.10380       -6.67060       -0.60960
H          1.25590       -5.24810       -1.25780
H          5.29450       -1.41870       -2.41180
H          2.49630       -0.49750       -2.46270
H          3.48700       -1.46120       -3.67520
H          7.00750       -0.78900       -1.94010
H          9.29180       -0.91980       -1.81980
H          9.21390        0.96280        1.99900
H          6.85970        0.98910        1.94740
