27

C         -0.32800       -1.08200        0.00300
N          0.78200       -0.64090        0.62530
H          1.42630       -1.20330        1.22670
C          0.82190        0.68230        0.39180
Cl         2.03290        1.76680        1.05320
C         -0.22290        1.01180       -0.42940
Cl        -0.54350        2.58050       -1.14630
N         -0.98300       -0.08710       -0.62550
Cu        -0.94440       -3.14170        0.01670
Br        -2.87380       -2.55350        1.64130
C          0.65720       -3.62990       -1.33200
C          1.64860       -2.80240       -1.67480
N         -1.54650       -5.15350        0.03000
C         -0.65580       -6.15710       -0.25690
C         -1.04470       -7.50570       -0.24580
Cl         0.13690       -8.76730       -0.54770
C         -2.36730       -7.83220        0.02180
C         -3.27090       -6.82190        0.30710
C         -2.84490       -5.48640        0.33650
H         -1.82830       -0.17900       -1.23010
H          0.66990       -4.57400       -1.85340
H          1.75180       -1.80630       -1.28510
H          2.39040       -3.12600       -2.39810
H          0.39120       -5.96700       -0.41040
H         -2.68750       -8.86790        0.00780
H         -4.31000       -7.06150        0.50220
H         -3.58790       -4.74900        0.52660
