82

C          1.02400       -0.65300       -0.05500
N          0.69260       -0.03580        1.05290
C          1.32010        0.00260        2.37430
C          1.37640       -1.36330        3.03770
C          2.66400        0.72870        2.37030
C         -0.54260        0.69760        0.89190
C         -0.73420        0.76890       -0.59380
N          0.04640       -0.33500       -1.07940
C         -0.32780       -0.90730       -2.37980
C          0.78030       -0.86110       -3.40760
C         -0.95590       -2.29830       -2.25830
Cu         2.78020       -1.86970       -0.29550
Br         1.44770       -3.94790        0.48800
C          3.88630       -0.14460       -0.94590
C          3.82900        0.25400       -2.21380
P          4.78960       -3.26190       -0.57060
C          5.71210       -3.17260       -2.28480
C          6.37130       -1.83860       -2.68960
C          6.78970       -4.23780       -2.63360
C          4.55340       -3.42440       -3.27730
C          5.99080       -2.53950        0.74400
C          5.29370       -2.70620        2.10350
C          7.31140       -3.33860        0.83420
C          6.41100       -1.05920        0.63420
C          4.64230       -5.16980       -0.50250
C          3.44410       -5.89280       -0.70660
C          3.35480       -7.28110       -0.66750
C          4.50430       -8.06980       -0.56730
N          4.40440       -9.50230       -0.65720
C          5.34670      -10.25800       -1.44780
C          3.31200      -10.22600       -0.02490
C          5.73310       -7.40900       -0.47290
C          5.79380       -6.00130       -0.41720
H          0.67040        0.62370        3.03810
H          2.07610       -2.02740        2.50500
H          0.35900       -1.81020        3.04580
H          1.71040       -1.24630        4.09210
H          3.43230        0.14810        1.83600
H          3.00020        0.88790        3.41930
H          2.55020        1.73250        1.90290
H         -0.52350        1.72770        1.31210
H         -1.34690        0.09750        1.37350
H         -0.25120        1.69050       -0.98870
H         -1.81420        0.74950       -0.86040
H         -1.14250       -0.27250       -2.80570
H          1.57690       -1.57240       -3.12910
H          1.15750        0.18030       -3.48990
H          0.37130       -1.15130       -4.40160
H         -0.22110       -3.05580       -1.92840
H         -1.36660       -2.60270       -3.24910
H         -1.81170       -2.26940       -1.54840
H          4.17510        0.65120       -0.27290
H          3.39450       -0.37020       -2.97260
H          4.22550        1.22230       -2.50400
H          7.30000       -1.63300       -2.14010
H          5.71630       -0.99320       -2.64750
H          6.67340       -1.87080       -3.76240
H          7.70010       -4.16680       -2.02030
H          7.13110       -4.09380       -3.68560
H          6.39040       -5.26510       -2.66010
H          3.74180       -2.68040       -3.13870
H          4.09870       -4.42770       -3.12310
H          4.87470       -3.37290       -4.33990
H          5.02660       -3.77020        2.28160
H          4.36780       -2.10120        2.13160
H          5.95270       -2.37340        2.93640
H          7.13910       -4.36950        1.18300
H          7.98460       -2.92790        1.61660
H          7.88410       -3.30200       -0.10620
H          5.58380       -0.38320        0.83370
H          6.92830       -0.79620       -0.29440
H          7.13550       -0.81050        1.44230
H          2.54130       -5.44650       -0.97470
H          2.39150       -7.75390       -0.81080
H          6.08280       -9.60840       -1.96760
H          4.78950      -10.80570       -2.23980
H          5.88260      -10.99000       -0.81220
H          2.67050       -9.56710        0.59510
H          3.73450      -11.00040        0.65410
H          2.68510      -10.72570       -0.79450
H          6.65580       -7.96590       -0.44970
H          6.78150       -5.59850       -0.38320
