77

C          1.02400       -0.65300       -0.05500
N          1.03330        0.43540        0.61500
C          2.17280        0.93550        1.34730
C         -0.25420        1.08530        0.60060
C         -1.08470        0.23490       -0.37090
N         -0.23540       -0.90090       -0.65100
C         -0.60600       -2.00220       -1.49070
C         -1.88650       -2.04220       -2.08850
C         -2.26060       -3.11340       -2.90590
C         -1.37350       -4.16030       -3.13560
C         -0.10410       -4.14080       -2.55020
C          0.27750       -3.06830       -1.73620
Cu         2.78020       -1.86970       -0.29550
Br         3.38330       -0.57250       -2.45450
C          2.27960       -2.94660        1.49680
C          1.08590       -2.88050        2.09080
P          4.78960       -3.26190       -0.57060
C          5.76750       -3.30160       -2.22930
C          6.39250       -1.93590       -2.60970
C          6.88510       -4.34340       -2.49640
C          4.66290       -3.67580       -3.25830
C          5.98770       -2.52150        0.73110
C          5.37940       -2.66400        2.13750
C          7.33510       -3.28020        0.79900
C          6.29250       -1.02620        0.53090
C          4.36660       -5.01600       -0.22300
C          3.05710       -5.46920       -0.03430
C          2.79200       -6.80930        0.28470
C          3.82980       -7.77190        0.40400
N          3.58180       -9.15280        0.78690
C          2.26940       -9.64520        1.19790
C          4.62760      -10.17790        0.85240
C          5.13850       -7.30530        0.14450
C          5.38880       -5.97040       -0.15210
H          3.04740        0.25820        1.24690
H          1.90950        1.01590        2.42380
H          2.44660        1.94210        0.96820
H         -0.18890        2.13800        0.25070
H         -0.67670        1.04310        1.62850
H         -1.25250        0.78020       -1.32710
H         -2.05230       -0.05890        0.08840
H         -2.60150       -1.24840       -1.93500
H         -3.24290       -3.12850       -3.35930
H         -1.66510       -4.99210       -3.76560
H          0.58460       -4.95760       -2.72630
H          1.25910       -3.08260       -1.30150
H          2.96930       -3.66280        1.91270
H          0.28070       -2.26920        1.71320
H          0.88210       -3.50720        2.95350
H          7.39230       -1.81620       -2.15410
H          5.82010       -1.06120       -2.30300
H          6.54990       -1.85750       -3.70800
H          7.78670       -4.22240       -1.88330
H          7.24420       -4.21680       -3.54660
H          6.52580       -5.38560       -2.45260
H          3.76650       -3.03930       -3.20310
H          4.29620       -4.70920       -3.07140
H          5.03010       -3.63460       -4.30640
H          5.14590       -3.72890        2.35870
H          4.49010       -2.02050        2.25130
H          6.09560       -2.33000        2.92090
H          7.20130       -4.34560        1.06150
H          7.98490       -2.87290        1.60140
H          7.91570       -3.16780       -0.12320
H          5.35870       -0.43540        0.48770
H          6.90350       -0.81990       -0.35400
H          6.91100       -0.65250        1.37820
H          2.22370       -4.80070       -0.12290
H          1.75390       -7.03730        0.43740
H          1.46380       -8.90030        1.19400
H          2.33370      -10.02450        2.24150
H          1.95430      -10.47800        0.53490
H          5.62930       -9.86370        0.53570
H          4.35670      -11.03320        0.19990
H          4.72120      -10.54400        1.89630
H          6.01320       -7.92390        0.17020
H          6.41310       -5.70300       -0.31850
