49

C         -0.22720       -1.22880       -0.02970
N          0.46980       -0.41090        0.87330
C          1.19810       -0.71600        2.12350
C          0.36850        0.87470        0.40160
C          0.89910        2.18880        0.98420
C         -0.32230        0.84100       -0.77660
C         -0.68720        2.04170       -1.62250
N         -0.64150       -0.44030       -1.07780
C         -1.22310       -0.83390       -2.35890
Cu        -0.49020       -3.48260       -0.01010
Br        -2.63120       -3.18410        1.41650
C          1.28710       -3.73050       -1.19420
C          2.07330       -2.71890       -1.57110
C         -0.79130       -5.73510       -0.01260
N          0.13630       -6.78320        0.10430
C          1.58900       -6.80500        0.41210
C         -0.57630       -7.95490        0.01140
C         -0.12390       -9.41370        0.11140
C         -1.88660       -7.63640       -0.18880
C         -3.02430       -8.60520       -0.41280
N         -2.02770       -6.29560       -0.17290
C         -3.27860       -5.63020       -0.47000
H          1.16420       -1.79040        2.37410
H          0.76290       -0.13390        2.97290
H          2.26970       -0.39660        2.04560
H          1.47100        2.10070        1.92590
H          0.05150        2.89390        1.16310
H          1.55690        2.69430        0.23660
H         -0.35620        3.01040       -1.19650
H         -1.79590        2.08920       -1.70950
H         -0.23800        1.95850       -2.63090
H         -1.32610        0.04420       -3.02840
H         -2.23370       -1.26130       -2.26730
H         -0.52350       -1.51120       -2.88650
H          1.54200       -4.72210       -1.55200
H          1.89220       -1.69820       -1.27390
H          2.92820       -2.90770       -2.21050
H          1.99490       -5.79770        0.60840
H          2.17030       -7.30940       -0.39780
H          1.77050       -7.40760        1.34250
H          0.95060       -9.57130        0.31210
H         -0.38990       -9.96420       -0.82310
H         -0.69700       -9.91580        0.92880
H         -2.72680       -9.67080       -0.36870
H         -3.46190       -8.43650       -1.42160
H         -3.80320       -8.43460        0.35850
H         -4.03070       -6.34430       -0.84240
H         -3.12810       -4.90280       -1.29360
H         -3.73990       -5.25550        0.44600
