55

P          0.99000        0.04980        0.08610
C         -0.03040       -0.46520        1.73140
C         -1.59850       -0.40970        1.83970
C          0.27650       -1.93190        2.13720
C          0.40180        0.40810        2.95240
C          0.63760        1.99740       -0.05530
C          1.35570        2.84200        1.02730
C          1.10920        2.64900       -1.37960
C         -0.86840        2.37180       -0.02760
C          0.27880       -1.19630       -1.23340
C         -1.26740       -1.12690       -1.34510
C          0.78990       -0.84120       -2.64230
C          0.64340       -2.68680       -1.05080
Cu         3.45000        0.04980        0.08610
Br         3.45000        0.94240       -2.34520
C          3.45000       -0.69110        2.10440
C          3.61100       -1.93510        2.56680
O          5.50000        0.04980        0.08610
C          6.22490        0.15800        1.17490
N          7.53520        0.01610        0.91420
C          7.57940       -0.23410       -0.41020
C          6.29750       -0.16290       -0.92920
H         -2.15520       -1.12500        1.24020
H         -2.06740        0.55820        1.72020
H         -1.89810       -0.71300        2.86940
H         -0.37160       -2.64020        1.63250
H          0.09080       -2.14190        3.19150
H          1.32510       -2.21740        1.89990
H         -0.12470        1.37000        2.96700
H          1.46580        0.55020        3.07160
H          0.05770       -0.04260        3.92150
H          2.44280        2.63540        1.01710
H          0.99460        2.73910        2.04540
H          1.20280        3.92890        0.82810
H          2.19100        2.82800       -1.38030
H          0.74810        3.69760       -1.47670
H          0.73110        2.14690       -2.28010
H         -1.32220        2.21670        0.94610
H         -1.44080        1.90800       -0.84810
H         -1.02000        3.46590       -0.16890
H         -1.66160       -0.10520       -1.34160
H         -1.75460       -1.74070       -0.57610
H         -1.64600       -1.60480       -2.26400
H          0.53630        0.18260       -2.93300
H          0.32510       -1.49650       -3.41490
H          1.86970       -1.04760       -2.71110
H          0.16260       -3.18200       -0.20420
H          1.73660       -2.84260       -0.99340
H          0.24270       -3.28150       -1.90620
H          3.43110        0.09820        2.84160
H          3.69710       -2.77670        1.93430
H          3.63230       -2.06420        3.66630
H          5.82810        0.42700        2.14540
H          8.48430       -0.51030       -0.93120
H          5.99610       -0.41040       -1.93750
