48

C          0.90100       -0.64300       -0.00200
N          0.16210       -0.25780        1.07430
C          0.27900       -0.58260        2.48710
C         -0.83170        0.51120        0.59860
C         -0.75540        0.52860       -0.76300
N          0.29920       -0.22120       -1.15860
C          0.59830       -0.55420       -2.54720
C         -0.23380       -0.08390       -3.59760
C         -0.02100       -0.46830       -4.92260
C          1.02640       -1.32580       -5.24070
C          1.86750       -1.79610       -4.23130
C          1.65750       -1.41800       -2.89600
Cu         2.65840       -1.88140       -0.01350
Br         4.14220        0.11510        0.00480
C          1.43370       -3.61380       -0.02810
C          0.11360       -3.62970       -0.09870
N          4.37500       -3.09110       -0.02470
C          5.67830       -2.72930       -0.22350
N          6.50800       -3.80690       -0.27750
C          7.89990       -3.88580       -0.68020
C          8.52430       -2.80800       -1.34230
C          9.82460       -2.94000       -1.84760
C         10.52420       -4.13820       -1.69140
C          9.93010       -5.20800       -1.02600
C          8.63200       -5.08820       -0.52750
C          5.73430       -4.86540       -0.00410
C          4.44620       -4.44210        0.11620
H          1.05010       -1.35490        2.66290
H         -0.70410       -0.98990        2.82340
H          0.47590        0.33680        3.07800
H         -1.59920        0.98840        1.19520
H         -1.46980        1.02800       -1.39800
H         -1.07440        0.56630       -3.42140
H         -0.68180       -0.10830       -5.70270
H          1.17850       -1.62910       -6.26940
H          2.67640       -2.46830       -4.48660
H          2.31580       -1.82450       -2.15170
H          1.83730       -4.60350        0.01460
H         -0.46110       -2.73140       -0.19040
H         -0.39870       -4.58930       -0.08080
H          6.02120       -1.73360       -0.43460
H          8.00290       -1.87740       -1.51510
H         10.28630       -2.11840       -2.38010
H         11.52390       -4.24320       -2.09300
H         10.46760       -6.14160       -0.90980
H          8.21160       -5.95360       -0.03840
H          6.04730       -5.89780        0.04740
H          3.68310       -5.15470        0.31920
