55

C          1.02400       -0.65300       -0.05500
N          0.46000       -0.03350       -1.03350
C          0.97240        0.06990       -2.37710
C         -0.70290        0.70030       -0.59670
C         -0.98990        0.13160        0.77930
N          0.25950       -0.48020        1.15720
C          0.55990       -0.68480        2.55110
C         -0.49220       -0.74810        3.50120
C         -0.23790       -0.85440        4.87180
C          1.07330       -0.86540        5.33600
C          2.12140       -0.77710        4.42280
C          1.87490       -0.71850        3.03910
Cu         2.78020       -1.86970       -0.29550
Br         4.27090        0.16740        0.28420
C          1.54270       -3.56080       -0.77670
C          0.20910       -3.53080       -0.84800
C          4.53640       -3.08650       -0.53600
N          4.81510       -3.71890       -1.63180
C          4.05930       -3.71290       -2.86520
C          6.12730       -4.32810       -1.60320
C          6.68710       -3.97510       -0.24020
N          5.63880       -3.20800        0.38240
C          5.61790       -3.09440        1.81180
C          6.81210       -3.29120        2.56600
C          6.79720       -3.26950        3.96200
C          5.59660       -3.08630        4.63510
C          4.41610       -2.94530        3.91500
C          4.42150       -2.92810        2.51510
H          1.27640       -0.92260       -2.76330
H          1.81680        0.79080       -2.39720
H          0.17770        0.47570       -3.04440
H         -1.59270        0.60980       -1.25190
H         -0.39240        1.76840       -0.51110
H         -1.74670       -0.68100        0.72390
H         -1.32100        0.94350        1.46550
H         -1.52910       -0.70820        3.19440
H         -1.05730       -0.90380        5.57770
H          1.27360       -0.92700        6.40020
H          3.13290       -0.75030        4.80150
H          2.70570       -0.64430        2.36660
H          2.03800       -4.50950       -0.95660
H         -0.36580       -2.63580       -0.66890
H         -0.33870       -4.43610       -1.08590
H          3.05930       -3.26690       -2.76690
H          4.00050       -4.74540       -3.27130
H          4.62170       -3.10380       -3.60910
H          6.77630       -3.88290       -2.39740
H          6.05170       -5.42660       -1.75550
H          7.63560       -3.40050       -0.29860
H          6.84640       -4.93280        0.31850
H          7.75990       -3.47860        2.08310
H          7.71370       -3.41500        4.52020
H          5.57930       -3.08020        5.72000
H          3.49350       -2.86510        4.45520
H          3.48600       -2.82910        1.98000
