112

C          2.32700        0.03400        0.00000
N          1.40300        0.96470       -0.52800
C          1.49790        2.25610       -1.24060
C          1.06360        2.24120       -2.74520
C          1.37590        3.59850       -3.42860
C          0.85880        3.72470       -4.85640
C          0.17200        0.48510       -0.24180
C          0.27240       -0.66850        0.45070
C         -0.88360       -1.31990        0.92700
C         -2.14570       -0.78740        0.63090
C         -2.24940        0.39120       -0.11380
C         -1.08970        1.04980       -0.54030
N          1.57750       -1.00810        0.59820
C          1.92130       -2.23090        1.39760
C          1.33030       -3.53570        0.80630
C          1.79330       -3.95300       -0.43760
C          1.29490       -5.09660       -1.06430
C          0.30550       -5.86490       -0.45340
C         -0.17460       -5.49800        0.80370
C          0.33610       -4.35290        1.44810
Cu         4.47690        0.05800        0.00140
Br         4.46000        1.43450        2.19530
C          4.49080       -1.08460       -1.81980
C          3.39900       -1.50850       -2.45990
C          6.62670        0.08210        0.00280
N          7.41080        1.33850        0.01590
C          7.26610        2.89630       -0.25740
C          6.04050        3.52120       -0.65300
C          4.83260        2.80940       -0.59830
C          3.94090        3.65850        0.44010
C          4.54870        2.41620       -2.06120
C          5.84070        4.85620       -1.07420
C          6.80450        5.76370       -0.99040
C          8.02890        5.34420       -0.58460
C          8.33180        3.96470       -0.27850
C          9.82110        3.76350       -0.06190
C         10.32430        3.09970       -1.34790
C         10.67870        5.03710        0.16470
C          8.64050        0.87480        0.28970
C          8.68650       -0.44590        0.46130
N          7.48590       -1.02690        0.35040
C          7.56120       -2.48310        0.79130
C          8.25900       -2.88740        2.05130
C          8.91280       -1.97520        3.13170
C          8.40160       -2.23290        4.57770
C         10.44940       -2.20120        3.15940
C          8.43660       -4.26000        2.35650
C          8.00760       -5.26080        1.53310
C          7.37900       -4.94830        0.36470
C          7.14790       -3.61660       -0.03070
C          6.53570       -3.44860       -1.36730
C          7.58560       -3.05020       -2.41750
C          5.64890       -4.58420       -1.92000
H          2.45940        2.61520       -1.17150
H          0.92660        3.02960       -0.68960
H         -0.02140        2.06170       -2.83560
H          1.58010        1.42930       -3.30200
H          2.45470        3.74670       -3.51690
H          0.96330        4.43420       -2.82670
H          1.27950        2.92660       -5.50370
H          1.18640        4.70760       -5.26670
H         -0.24830        3.68910       -4.87290
H         -0.85860       -2.20030        1.52710
H         -3.04180       -1.28370        0.98410
H         -3.22500        0.80150       -0.34090
H         -1.20800        1.97660       -1.07810
H          1.49480       -2.10060        2.42210
H          3.01830       -2.33900        1.51750
H          2.55360       -3.38150       -0.92470
H          1.67690       -5.38190       -2.03420
H         -0.08350       -6.74380       -0.95640
H         -0.94970       -6.11040        1.26640
H         -0.07500       -4.11050        2.42340
H          5.43920       -1.25810       -2.30810
H          2.40110       -1.34550       -2.08210
H          3.49820       -2.04480       -3.39750
H          5.06770        1.90360       -0.15850
H          3.67550        4.70490        0.20320
H          4.57910        3.84710        1.34820
H          3.01180        3.19130        0.80220
H          4.16540        3.29390       -2.57820
H          3.90270        1.52000       -2.12880
H          5.46830        2.10800       -2.60760
H          4.87540        5.23720       -1.40010
H          6.59700        6.80250       -1.23800
H          8.70400        6.16610       -0.58120
H          9.94670        3.24580        0.90410
H         10.17650        3.78120       -2.22130
H          9.77870        2.17140       -1.62800
H         11.41200        2.85480       -1.27810
H         10.73810        5.67580       -0.74690
H         11.71640        4.76210        0.42800
H         10.26050        5.63990        1.00550
H          9.55890        1.38650        0.37950
H          9.59950       -0.96620        0.71390
H          8.71630       -0.91000        2.92230
H          8.62790       -3.25970        4.94210
H          7.31270       -2.06020        4.67260
H          8.92130       -1.55090        5.28940
H         10.71570       -3.24370        3.44250
H         10.93580       -1.53930        3.90770
H         10.91030       -2.00450        2.17360
H          8.94700       -4.59420        3.24900
H          8.18900       -6.29850        1.79070
H          7.10800       -5.79210       -0.25010
H          5.82670       -2.73320       -1.07660
H          8.30590       -3.88960       -2.55410
H          8.15380       -2.14690       -2.11810
H          7.10430       -2.85720       -3.39970
H          6.23840       -5.47290       -2.22420
H          5.11250       -4.22120       -2.82340
H          4.88030       -4.87560       -1.17090
