93

C         -0.15430       -1.54140       -1.25680
N          0.98540       -0.68590       -1.29660
C          2.23330       -0.47090       -0.52650
C          0.91560       -0.03500       -2.48850
C          1.99390        0.85510       -3.11640
C         -0.22610       -0.36210       -3.12570
C         -0.62740        0.17740       -4.49240
N         -0.89890       -1.27250       -2.38290
C         -2.19950       -1.79730       -2.80750
Cu        -0.49020       -3.48260       -0.01010
Br        -0.07450       -1.87060        1.97400
C         -0.83520       -4.82080       -1.65710
C         -0.84930       -6.15300       -1.71860
C         -0.57150       -5.33560        1.20150
N          0.64600       -6.15110        1.24410
C          2.10460       -6.31190        0.73480
C          3.08770       -7.25040        1.30020
C          3.06560       -7.58590        2.80160
C          4.30570       -8.31770        3.39830
C          3.10010       -6.22360        3.52200
C          4.20670       -7.68660        0.53540
C          4.46100       -7.17670       -0.72130
C          3.73070       -6.10200       -1.14480
C          2.63310       -5.62740       -0.40320
C          2.11860       -4.30340       -0.70580
C          2.28210       -3.52430        0.58290
C          2.71350       -3.55640       -1.91260
C          0.16600       -7.36880        1.49280
C         -1.16790       -7.38250        1.50320
N         -1.74430       -6.17320        1.33550
C         -3.31450       -6.10610        1.18750
C         -4.20180       -4.98270        1.56660
C         -3.83030       -3.73170        2.30070
C         -3.20710       -4.07460        3.65420
C         -3.05550       -2.84530        1.39430
C         -5.62180       -5.00610        1.37600
C         -6.28890       -6.05960        0.84550
C         -5.59040       -7.17450        0.58220
C         -4.19050       -7.26770        0.79800
C         -3.85640       -8.73030        0.74260
C         -3.08200       -9.06270       -0.54290
C         -3.63230       -9.12130        2.24300
H          2.34060       -0.85000        0.49310
H          2.38370        0.61650       -0.35890
H          3.11740       -0.81560       -1.12980
H          2.93300        0.96600       -2.54270
H          1.60520        1.87010       -3.32980
H          2.30740        0.40020       -4.08870
H          0.10790        0.89910       -4.90840
H         -1.59840        0.70850       -4.43170
H         -0.69840       -0.65110       -5.22890
H         -2.42250       -1.51760       -3.86270
H         -2.99780       -1.33320       -2.19320
H         -2.29050       -2.87700       -2.76210
H         -0.93340       -4.36050       -2.62280
H         -0.65760       -6.79100       -0.89360
H         -0.98590       -6.64170       -2.67860
H          2.17210       -8.17080        3.07310
H          5.24070       -7.71070        3.30530
H          4.50400       -9.32150        2.97320
H          4.14260       -8.45130        4.49220
H          4.01520       -5.66420        3.19810
H          2.29010       -5.55780        3.17740
H          2.15910       -5.66100        3.38700
H          4.92820       -8.40330        0.90130
H          5.30440       -7.50720       -1.31960
H          4.07230       -5.62820       -2.05530
H          1.13610       -4.41820       -0.88170
H          3.34000       -3.34280        0.86220
H          1.78130       -3.96950        1.46550
H          1.70570       -2.66860        0.39890
H          3.77650       -3.29290       -1.72700
H          2.15150       -2.64050       -2.11900
H          2.60700       -4.15390       -2.83980
H          0.72620       -8.29820        1.46970
H         -1.57220       -8.34000        1.51030
H         -4.72600       -3.11850        2.56680
H         -2.29290       -4.68800        3.54450
H         -3.94570       -4.65310        4.26130
H         -2.97810       -3.14280        4.20800
H         -2.14820       -3.37500        1.15980
H         -2.87310       -1.87760        1.89700
H         -3.63010       -2.67210        0.45720
H         -6.27740       -4.19330        1.66660
H         -7.36910       -6.05390        0.71730
H         -6.20600       -8.01220        0.25550
H         -4.72400       -9.40990        0.56110
H         -2.18400       -8.46130       -0.73700
H         -3.78010       -8.83790       -1.39410
H         -2.86950      -10.14780       -0.61800
H         -3.35190      -10.17970        2.36020
H         -2.97760       -8.48890        2.88390
H         -4.59580       -8.93370        2.77340
