40

C          0.90100       -0.64300       -0.00200
N         -0.35440       -1.11610        0.09200
C         -0.76660       -2.51270        0.09530
C         -1.16330       -0.04290        0.07220
C         -0.37670        1.08630       -0.02790
N          0.92440        0.71010       -0.09090
C          2.08720        1.58350       -0.12340
C          1.94440        2.98960       -0.11750
C          3.06920        3.82460       -0.13940
C          4.35120        3.28000       -0.16520
C          4.51520        1.89860       -0.15740
C          3.39910        1.06090       -0.12540
Cu         2.65840       -1.88140       -0.01350
Br         2.86770       -1.23660       -2.40900
C          2.33020       -2.29280        2.04450
C          1.42150       -1.67830        2.80790
N          4.37500       -3.09110       -0.02470
C          5.33430       -2.88440       -0.98010
C          6.46710       -3.70150       -1.06280
F          7.40450       -3.47790       -2.01540
C          6.62200       -4.75190       -0.16560
C          5.64680       -4.97370        0.79660
C          4.53360       -4.13520        0.85200
H          0.11960       -3.18060        0.04250
H         -1.38820       -2.70320       -0.80940
H         -1.36210       -2.74020        1.00000
H         -2.24430       -0.07610        0.11510
H         -0.74970        2.10000       -0.04620
H          0.97350        3.45860       -0.08940
H          2.94370        4.90060       -0.12730
H          5.21900        3.92630       -0.18560
H          5.51020        1.47030       -0.17210
H          3.58690        0.00970       -0.09980
H          2.97590       -2.93420        2.61460
H          0.73720       -0.92540        2.44750
H          1.40070       -1.87440        3.87850
H          5.24880       -2.08070       -1.68750
H          7.48510       -5.40280       -0.22100
H          5.73740       -5.80190        1.48860
H          3.79100       -4.40620        1.56960
