42

C         -0.19780       -1.24080        0.02900
N         -1.10770       -0.18060       -0.01380
C         -2.57500       -0.18620       -0.01070
C         -0.36230        0.97800       -0.00130
C         -0.81590        2.44010       -0.00780
C          0.96200        0.63470        0.02450
C          2.13570        1.59460        0.01500
N          1.05970       -0.71420        0.05180
C          2.32110       -1.44100        0.04170
Cu        -0.49020       -3.48260       -0.01010
Br        -0.29110       -3.45390       -2.59220
C         -0.65540       -3.50650        2.13350
C         -0.53380       -2.39860        2.87380
N         -0.79430       -5.56030       -0.08120
C         -1.22980       -6.19960       -1.21830
C         -1.48780       -7.59020       -1.24140
C         -2.06410       -8.27550       -2.44300
C         -1.23000       -8.34460       -0.10190
C         -0.72690       -7.72010        1.02190
C         -0.51830       -6.34540        1.01850
H         -2.97590       -1.21560        0.02050
H         -2.96950        0.34580       -0.90470
H         -2.94920        0.36540        0.88630
H         -1.91000        2.60000       -0.01730
H         -0.38680        2.97120       -0.89030
H         -0.40570        2.97200        0.88500
H          1.83620        2.66400       -0.00650
H          2.75190        1.41250       -0.88990
H          2.75810        1.44270        0.92150
H          3.18650       -0.74340       -0.00820
H          2.37180       -2.07690       -0.86250
H          2.42870       -2.03090        0.96990
H         -0.88390       -4.36950        2.72920
H         -0.34650       -1.42350        2.45760
H         -0.64070       -2.45210        3.95260
H         -1.46310       -5.66470       -2.12420
H         -2.20260       -7.57210       -3.28850
H         -3.05840       -8.68890       -2.16580
H         -1.40580       -9.10880       -2.76590
H         -1.41000       -9.41350       -0.08370
H         -0.49200       -8.29910        1.90680
H         -0.08660       -5.96010        1.90000
