20

N         -0.69050       -1.22630       -0.01650
C         -1.40950       -0.05400       -0.18230
F         -2.74250       -0.08040       -0.39850
C         -0.77480        1.20310       -0.10490
C          0.60030        1.28170        0.08450
C          1.32190        0.10540        0.24940
C          0.65020       -1.13830        0.22520
Cu        -1.57560       -3.10440       -0.27260
Br        -2.00500       -3.19600        2.27990
C         -1.21920       -3.02830       -2.39150
C         -0.67070       -2.08640       -3.16860
C         -2.44880       -4.92370       -0.56800
O         -2.93290       -5.94810       -0.61410
H         -1.34440        2.11860       -0.20660
H          1.09860        2.25040        0.10090
H          2.39940        0.16610        0.38380
H          1.25440       -2.02520        0.34390
H         -1.56020       -3.92120       -2.90640
H         -0.25440       -1.15800       -2.80930
H         -0.61260       -2.28190       -4.24260
