35

N         -1.43860       -0.07350       -0.10150
C         -0.75440        0.96880       -0.67040
C          0.65090        0.99880       -0.63340
Cl         1.54770        2.26400       -1.45780
C          1.34640       -0.00490        0.04230
C          0.63850       -1.03260        0.65740
C         -0.76080       -1.05940        0.55270
Cu        -3.47560       -0.20170       -0.28210
Br        -3.17790       -1.54690       -2.47520
C         -3.72280        0.91490        1.53850
C         -2.71150        1.37360        2.28240
N         -5.49990       -0.25350       -0.47850
C         -6.13940       -1.46020       -0.49670
C         -5.37830       -2.74170       -0.35240
C         -7.54140       -1.51620       -0.49420
C         -8.27610       -0.33420       -0.46070
C         -7.61670        0.88730       -0.51120
C         -6.21720        0.91620       -0.54350
C         -5.51730        2.20810       -0.85230
H         -1.28810        1.74300       -1.19740
H          2.43150        0.00860        0.08500
H          1.17360       -1.80680        1.19440
H         -1.30670       -1.87990        1.00540
H         -4.73410        1.11660        1.87650
H         -1.67640        1.21180        2.01920
H         -2.91660        1.93250        3.19040
H         -4.29850       -2.55240       -0.20450
H         -5.54050       -3.40460       -1.22830
H         -5.73440       -3.25860        0.56380
H         -8.06020       -2.46640       -0.46740
H         -9.35690       -0.36200       -0.41560
H         -8.19300        1.80270       -0.55200
H         -6.24350        3.03110       -1.02540
H         -4.99050        2.06310       -1.82670
H         -4.78180        2.52100       -0.10100
