32

N         -1.45170       -0.00980       -0.02790
C         -0.68490       -1.07700        0.35190
C          0.65920       -0.88610        0.74960
C          1.47310       -1.97940        1.38380
C          1.23210        0.38110        0.61620
C          0.45840        1.44470        0.16890
C         -0.90170        1.24240       -0.08140
Cu        -3.47560       -0.20170       -0.28210
Br        -3.75470        1.59490        1.56250
C         -3.24400       -1.69320       -1.81320
C         -2.08860       -2.16880       -2.28580
N         -5.51700       -0.29380       -0.53540
C         -6.13180       -1.50620       -0.74930
F         -5.44500       -2.66790       -0.64960
C         -7.51970       -1.59530       -0.85360
C         -8.28900       -0.44000       -0.82090
F         -9.63570       -0.51380       -0.95480
C         -7.66720        0.78850       -0.63580
C         -6.28030        0.83820       -0.45340
F         -5.70820        2.06100       -0.34280
H         -1.14970       -2.04590        0.47940
H          0.89930       -2.92390        1.47590
H          1.74850       -1.65800        2.41700
H          2.40900       -2.15990        0.81930
H          2.26900        0.55050        0.88710
H          0.90370        2.42550        0.05410
H         -1.50660        2.08010       -0.40110
H         -4.11810       -2.09510       -2.30190
H         -1.12300       -1.84610       -1.94190
H         -2.10540       -2.91570       -3.07470
H         -7.99500       -2.56420       -0.93900
H         -8.25470        1.69830       -0.63700
