38

N         -1.30860       -0.08860       -0.05540
C         -0.67110       -0.96740        0.76200
C          0.59270       -0.68070        1.24000
C          1.32680        0.18050        0.52420
Cl         2.98720        0.50560        0.98860
C          0.73890        0.76420       -0.60390
C         -0.63150        0.73850       -0.79380
Cu        -3.29630       -0.19120       -0.24950
Br        -3.23870       -0.62420       -2.79310
C         -3.75930        0.17650        1.81890
C         -3.28590       -0.67980        2.72040
P         -5.84980       -0.29860       -0.53370
N         -6.59760        1.31380       -0.72170
C         -6.15090        2.06910       -1.83570
C         -8.06290        1.11520       -0.78250
O         -6.29210       -1.20020       -1.97690
C         -5.80200       -2.48990       -1.87800
O         -6.59780       -1.06660        0.84950
C         -6.33710       -0.37440        2.03590
H         -1.18280       -1.81200        1.25430
H          1.02630       -1.14240        2.09390
H          1.35460        1.27240       -1.27780
H         -1.11460        1.36060       -1.48560
H         -4.28270        0.99220        2.21140
H         -2.65010       -1.40410        2.54180
H         -3.43980       -0.68730        3.73750
H         -5.08810        2.17480       -1.83720
H         -6.65670        2.99850       -1.95510
H         -6.46500        1.74570       -2.67230
H         -8.43170        0.59180        0.10090
H         -8.32250        0.52600       -1.66240
H         -8.58120        2.07540       -0.84650
H         -6.09950       -3.07460       -2.75770
H         -6.20000       -2.98060       -0.99550
H         -4.71730       -2.48080       -1.83100
H         -6.74100       -0.86520        2.90350
H         -6.59780        0.66270        2.01210
H         -5.45780       -0.49750        2.33550
