35

N         -1.44100       -0.03660        0.00020
C         -0.90590        0.73740        0.96800
C          0.48240        0.99450        1.02550
C          1.06910        1.93230        2.04300
C          1.31850        0.41330        0.06980
C          0.77410       -0.42760       -0.89790
C         -0.61310       -0.65960       -0.92310
Cu        -3.47560       -0.20170       -0.28210
Br        -3.52610       -2.42110        1.05220
C         -3.43380        1.64060       -1.38960
C         -2.35430        2.39210       -1.63460
N         -5.53610       -0.26180       -0.52080
C         -6.13610       -1.50260       -0.69720
C         -7.49750       -1.59910       -1.05640
C         -8.12250       -2.90600       -1.46270
C         -8.27280       -0.44180       -1.09510
C         -7.68210        0.78640       -0.83250
C         -6.30250        0.85440       -0.60370
H         -1.55460        1.17200        1.71730
H          0.29310        2.30600        2.74140
H          1.49120        2.80720        1.50300
H          1.88510        1.45260        2.62710
H          2.38580        0.62360        0.06750
H          1.42370       -0.85970       -1.65000
H         -1.02810       -1.24540       -1.72490
H         -4.34530        2.00380       -1.83990
H         -1.36240        2.14440       -1.29070
H         -2.46510        3.29960       -2.22570
H         -5.54700       -2.40200       -0.69510
H         -7.39710       -3.74420       -1.41720
H         -8.45980       -2.82000       -2.52210
H         -9.00630       -3.14270       -0.83660
H         -9.32890       -0.49360       -1.34030
H         -8.28960        1.68420       -0.83750
H         -5.88320        1.82920       -0.41480
