40

N         -0.65900       -1.22800       -0.05100
C         -1.35560       -0.09500        0.27430
C         -2.78470       -0.17070        0.72000
C         -0.68990        1.13790        0.35320
C          0.67690        1.20000        0.08760
C          1.37520        0.03170       -0.20710
C          0.68950       -1.18380       -0.24340
Cu        -1.57560       -3.10440       -0.27260
Br         0.12370       -4.13090        1.39070
C         -2.98630       -2.25220       -1.65330
C         -3.91160       -2.93470       -2.32980
N         -2.49230       -4.98070       -0.49410
C         -3.73200       -5.36290       -0.10140
N         -3.90550       -6.69090       -0.31130
C         -4.96320       -7.55260        0.18030
C         -5.76090       -7.14480        1.26490
C         -6.69020       -8.02810        1.84300
C         -6.83900       -9.31960        1.32350
C         -6.07330       -9.72960        0.23380
C         -5.13410       -8.85700       -0.33120
C         -2.79190       -7.11280       -0.95720
C         -1.89480       -6.07230       -0.99680
H         -3.15200       -1.21630        0.73280
H         -3.43920        0.47080        0.10000
H         -2.83280        0.18270        1.77620
H         -1.22040        2.03760        0.64040
H          1.19830        2.14750        0.13270
H          2.43720        0.06700       -0.41350
H          1.22420       -2.08800       -0.50040
H         -2.93730       -1.18180       -1.81800
H         -4.02930       -4.00190       -2.24230
H         -4.57920       -2.40700       -3.00340
H         -4.40150       -4.71730        0.43600
H         -5.63290       -6.17660        1.73070
H         -7.26480       -7.73140        2.70730
H         -7.54690      -10.00600        1.77120
H         -6.18320      -10.73060       -0.15910
H         -4.53160       -9.21860       -1.15260
H         -2.60060       -8.11360       -1.31960
H         -0.90790       -6.08480       -1.43640
