37

P          0.96790        0.03930        0.08620
O         -0.46920       -0.82110       -0.23070
C         -0.19740       -1.64730       -1.36880
O          0.56380        0.43390        1.69340
C          0.69470       -0.72830        2.48420
O          0.76120        0.87830       -1.40220
C          1.09240        2.22980       -1.31020
Cu         3.42790        0.03930        0.08620
Br         3.42790        2.52470        0.81470
C          3.42790       -2.02390       -0.51860
C          2.97610       -3.01480        0.24570
N          5.52790        0.03930        0.08620
C          6.24520        1.20940        0.21650
C          7.63460        1.25250        0.09730
C          8.34730        0.08630       -0.12250
C          9.84030        0.11590       -0.29160
C          7.65870       -1.11410       -0.20870
C          6.25420       -1.12060       -0.12840
H         -0.68360       -2.63630       -1.26540
H          0.88100       -1.89120       -1.54840
H         -0.56710       -1.15240       -2.29350
H         -0.00880       -0.65190        3.33920
H          1.72800       -0.80430        2.88030
H          0.40840       -1.67570        1.96900
H          0.62360        2.75240       -2.16940
H          2.17840        2.34640       -1.47740
H          0.69710        2.71420       -0.39120
H          3.79010       -2.25000       -1.51690
H          2.58260       -2.82360        1.23480
H          2.98890       -4.03070       -0.14100
H          5.80510        2.16390        0.33500
H          8.14290        2.20880        0.15440
H         10.22920        1.15760       -0.25430
H         10.10600       -0.30980       -1.28320
H         10.32680       -0.47720        0.50720
H          8.17380       -2.04710       -0.37030
H          5.78780       -2.07090       -0.21700
