45

P          0.98350       -0.02990        0.09400
O         -0.41390        0.51850        0.90320
C         -0.08300        0.55120        2.30170
O          0.52210        0.51530       -1.45370
C          0.61420        1.92230       -1.48010
O          0.78850       -1.55250        0.87140
C          1.08650       -2.62530        0.03270
Cu         3.44350       -0.02990        0.09400
Br         3.44350       -1.66600       -1.91380
C          3.44350        1.32820        1.76070
C          3.42100        2.65290        1.65010
C          5.59350       -0.02990        0.09400
N          6.33690        0.38880       -0.93930
C          5.90020        0.95820       -2.20200
C          7.61670        0.36810       -0.50380
C          7.63310       -0.06000        0.80380
N          6.35750       -0.29310        1.18310
C          5.94990       -0.94940        2.40560
C          6.76030       -0.91220        3.55790
C          6.41260       -1.64760        4.70610
C          5.27240       -2.44630        4.70300
C          4.46090       -2.50770        3.56620
C          4.79050       -1.76080        2.42470
H         -0.48980        1.45200        2.79540
H          1.01310        0.58400        2.54570
H         -0.47300       -0.36050        2.80100
H         -0.04700        2.29860       -2.28880
H          1.65480        2.23360       -1.70430
H          0.24330        2.42220       -0.55500
H          0.64500       -3.53790        0.48350
H          2.17390       -2.80950        0.05720
H          0.64170       -2.52290       -0.98080
H          3.46930        0.88500        2.75090
H          3.39750        3.13800        0.68350
H          3.42750        3.25510        2.55610
H          4.79470        0.96390       -2.26420
H          6.34840        0.42590       -3.06340
H          6.23030        2.02490       -2.23390
H          8.48750        0.67480       -1.08420
H          8.51600       -0.22060        1.41590
H          7.66330       -0.32650        3.57160
H          7.04390       -1.60510        5.57640
H          5.01850       -3.02710        5.58200
H          3.58870       -3.15070        3.56610
H          4.16450       -1.86210        1.55000
