43

N         -0.65550       -1.22800       -0.03770
C         -0.33080       -0.76620        1.18990
C         -0.58290       -1.61220        2.39570
C          0.20250        0.52280        1.33420
C          0.37390        1.32480        0.20430
C          0.01200        0.83870       -1.05180
C         -0.51370       -0.45000       -1.15810
Cu        -1.58880       -3.11830       -0.27330
Br        -3.55200       -2.29860        1.18760
C          0.07330       -3.75390       -1.48910
C          0.15000       -4.98770       -2.01650
N         -2.48650       -4.98300       -0.48900
C         -3.77690       -5.01430       -0.94480
C         -4.44020       -6.23210       -1.11150
C         -3.76180       -7.42130       -0.85570
C         -2.42790       -7.38050       -0.44260
C         -1.70630       -8.55610       -0.24860
C         -0.36720       -8.50120        0.12570
C          0.27920       -7.26480        0.34100
C          1.71430       -7.18050        0.75390
O          2.21970       -6.08070        0.92710
C          2.59500       -8.38200        0.97940
C         -0.46280       -6.07990        0.16020
C         -1.80450       -6.13060       -0.24280
H         -1.04140       -2.58150        2.10910
H         -1.28610       -1.07990        3.07240
H          0.36780       -1.80400        2.93340
H          0.46180        0.90900        2.31220
H          0.77140        2.32670        0.30350
H          0.12670        1.45750       -1.93250
H         -0.81390       -0.83320       -2.12460
H          0.89980       -3.08140       -1.63940
H         -0.62070       -5.72820       -1.86910
H          1.02310       -5.27850       -2.58680
H         -4.29530       -4.08840       -1.15450
H         -5.46980       -6.25600       -1.44500
H         -4.26910       -8.36790       -0.99820
H         -2.17130       -9.52000       -0.41020
H          0.12980       -9.44720        0.23760
H          2.12000       -9.35080        0.75740
H          2.91860       -8.40150        2.03990
H          3.48640       -8.30920        0.32320
H          0.00700       -5.11220        0.29660
