25

N         -1.39000       -0.11200       -0.05400
C         -0.70720       -1.21010        0.36920
C          0.66470       -1.11940        0.63260
C          1.33710        0.07400        0.35910
C          0.62810        1.17200       -0.12790
C         -0.75550        1.07200       -0.28240
Cu        -3.47560       -0.20170       -0.28210
Br        -3.17900       -1.58980       -2.44850
C         -3.72190        0.95050        1.51630
C         -2.72970        1.40520        2.28490
C         -5.61100       -0.29360       -0.51560
N         -6.22270       -0.99270       -1.49260
C         -7.53450       -0.77900       -1.28000
C         -7.67020        0.04100       -0.18290
O         -6.47220        0.32300        0.26380
H         -1.24460       -2.11880        0.60580
H          1.20090       -1.96110        1.05160
H          2.40320        0.15110        0.52930
H          1.14040        2.09450       -0.37040
H         -1.32120        1.91610       -0.65540
H         -4.73340        1.17750        1.83160
H         -1.69050        1.22220        2.06940
H         -2.96300        1.97890        3.17590
H         -8.32960       -1.19860       -1.87870
H         -8.59830        0.39570        0.24710
