35

N         -0.65900       -1.22800       -0.05100
C         -1.27840       -0.07500       -0.43950
O         -2.47940       -0.16880       -1.07860
C         -3.00760        0.80580       -1.90030
C         -0.58970        1.15350       -0.31950
C          0.70170        1.17300        0.21190
C          1.31740       -0.02420        0.56660
C          0.63040       -1.22420        0.38540
Cu        -1.57560       -3.10440       -0.27260
Br        -0.14750       -3.55240       -2.38630
C         -2.76120       -2.73240        1.48200
C         -2.64930       -1.61620        2.20850
N         -2.49230       -4.98070       -0.49410
C         -3.52960       -5.40890        0.46490
C         -3.19560       -4.84760       -1.80030
C         -1.51280       -6.05040       -0.81280
H         -3.90460        0.41280       -2.42390
H         -2.26840        1.09730       -2.68250
H         -3.29140        1.69880       -1.31130
H         -1.03620        2.08050       -0.65710
H          1.23130        2.11340        0.31880
H          2.31760       -0.02170        0.97840
H          1.09940       -2.15830        0.66710
H         -3.49260       -3.41100        1.87450
H         -1.95680       -0.82590        1.97220
H         -3.27230       -1.48010        3.08750
H         -4.39660       -4.71330        0.47920
H         -3.08140       -5.53330        1.47350
H         -3.94680       -6.40460        0.19170
H         -3.94200       -4.02580       -1.74130
H         -3.73940       -5.77960       -2.08690
H         -2.53700       -4.58750       -2.64620
H         -0.80100       -6.14100        0.03460
H         -0.91750       -5.90690       -1.72900
H         -2.01090       -7.04010       -0.92760
