46

P          1.09610       -0.00840       -0.02630
O         -0.11570       -1.19580        0.27850
C          0.24650       -2.31370       -0.53850
C         -0.45700       -3.60940       -0.15860
O          0.68680        1.14150        1.16890
C          0.72740        0.59040        2.45680
C          0.04720        1.58070        3.39600
O          0.63700        0.23250       -1.67200
C         -0.76460        0.51960       -1.72370
C         -1.30110        0.40220       -3.14060
Cu         3.55610       -0.00840       -0.02630
Br         3.55610        2.47950       -0.74640
C          3.55610       -2.07370        0.57140
C          3.84730       -2.47030        1.80780
N          5.65610       -0.00840       -0.02630
C          6.35600        1.16820        0.04980
C          7.75930        1.19990        0.14070
C          8.48690        2.48560        0.40690
C          8.46090        0.00250        0.05460
C          7.76100       -1.19110       -0.06720
C          6.35570       -1.18910       -0.04460
H          1.31030       -2.56680       -0.43970
H          0.02970       -2.13030       -1.60670
H         -0.21830       -3.90260        0.88560
H         -0.08820       -4.41810       -0.83200
H         -1.55170       -3.51250       -0.30000
H          1.78220        0.45190        2.77690
H          0.16100       -0.36290        2.53400
H          0.55770        2.56730        3.34800
H          0.07430        1.21050        4.44060
H         -1.01550        1.72240        3.09420
H         -0.99130        1.52120       -1.30750
H         -1.40350       -0.22440       -1.19540
H         -0.84580        1.17360       -3.78970
H         -2.40660        0.54220       -3.12800
H         -1.09360       -0.61220       -3.54660
H          3.37800       -2.82910       -0.18420
H          4.08240       -1.75330        2.58370
H          3.87700       -3.53440        2.02980
H          5.85900        2.10700        0.15420
H          7.78320        3.33170        0.55190
H          9.18250        2.71420       -0.41510
H          9.05990        2.37930        1.35840
H          9.54590       -0.00890        0.10420
H          8.30090       -2.13170       -0.11540
H          5.87910       -2.13620       -0.12160
