89

N         -0.65900       -1.22800       -0.05100
C         -0.06500       -0.57900       -1.13220
O         -0.16640       -0.96730       -2.43890
C         -1.05680       -1.79890       -3.08750
C          0.60070        0.63220       -0.95700
C          0.69800        1.18950        0.33070
C          0.10750        0.57880        1.36860
C         -0.65270       -0.61490        1.15700
Cu        -1.57560       -3.10440       -0.27260
Br        -3.70620       -2.20080        0.89030
C          0.19300       -3.85440       -1.23790
C          1.36770       -3.22480       -1.38950
C         -2.51410       -5.02540       -0.49940
N         -3.61180       -5.29920       -1.30960
C         -4.66440       -4.76980       -2.29680
C         -4.90770       -5.38500       -3.63290
C         -3.92150       -5.98710       -4.62580
C         -3.14880       -4.81240       -5.25350
C         -3.06910       -7.14470       -4.17270
C         -6.21020       -5.35570       -4.20410
C         -7.27620       -4.70220       -3.63640
C         -7.09200       -4.00870       -2.47910
C         -5.85260       -4.04480       -1.81420
C         -5.91440       -3.33340       -0.54260
C         -6.04840       -1.75910       -0.77950
C         -6.95230       -3.85520        0.43720
C         -3.99720       -6.63160       -0.97930
C         -2.79330       -7.27490       -0.37960
N         -2.12430       -6.25340        0.38850
C         -1.25130       -6.70730        1.63650
C         -0.14020       -5.89430        2.28580
C          0.57370       -4.79180        1.52800
C          2.02260       -4.15180        1.70940
C          0.94350       -5.70030        0.34260
C          0.64130       -6.30780        3.37390
C          0.52160       -7.55880        3.87400
C         -0.34020       -8.43620        3.28310
C         -1.20620       -8.12150        2.18850
C         -1.85530       -9.43580        1.61780
C         -1.07550       -9.84940        0.33830
C         -1.84080      -10.72430        2.49250
H         -1.64030       -1.19710       -3.82190
H         -1.76840       -2.29700       -2.40480
H         -0.47880       -2.54020       -3.67900
H          1.03520        1.14050       -1.81350
H          1.25730        2.11150        0.43170
H          0.18230        0.99760        2.36230
H         -1.08690       -1.12410        2.02820
H          0.12630       -4.80780       -1.75680
H          1.59500       -2.26930       -0.95740
H          2.16680       -3.69130       -1.95310
H         -4.46730       -6.42200       -5.51150
H         -2.56490       -4.26200       -4.49720
H         -3.88760       -4.10010       -5.70650
H         -2.50100       -5.15190       -6.08490
H         -2.37710       -6.82820       -3.37670
H         -2.46430       -7.48680       -5.05160
H         -3.72280       -7.99180       -3.88830
H         -6.44540       -5.85090       -5.14270
H         -8.25130       -4.72580       -4.11040
H         -7.93240       -3.45340       -2.10550
H         -5.03110       -3.76820       -0.15920
H         -5.55360       -1.00460       -0.14370
H         -5.36620       -1.39320       -1.58600
H         -6.69470       -1.33750        0.02080
H         -7.91290       -3.31420        0.32960
H         -6.55370       -3.70810        1.46360
H         -7.09920       -4.94040        0.26440
H         -4.34670       -7.22560       -1.83240
H         -4.85060       -6.56090       -0.27790
H         -2.14880       -7.53350       -1.22520
H         -3.28420       -8.07760        0.12070
H         -0.12810       -3.92110        1.51720
H          2.86570       -4.69450        1.18930
H          2.41380       -3.86100        2.69800
H          2.01980       -3.20620        1.12230
H          1.59160       -6.53180        0.66950
H          0.35530       -6.42580       -0.25730
H         -0.06000       -5.65880        0.00140
H          1.45700       -5.70860        3.77420
H          1.19350       -7.90260        4.65430
H         -0.22700       -9.41810        3.70070
H         -2.94230       -9.33150        1.53560
H          0.00140       -9.98530        0.58730
H         -1.08190       -9.12400       -0.47580
H         -1.44650      -10.80860       -0.08380
H         -0.81990      -11.13510        2.65650
H         -2.39410      -11.54080        1.97550
H         -2.34480      -10.54620        3.46500
