72

P          1.05060        0.00290        0.08620
O         -0.11710       -1.21410       -0.26290
C          0.27730       -1.75560       -1.53900
C         -0.44200       -3.03000       -1.91390
O          0.60330        0.41030        1.68340
C          0.71180       -0.68370        2.54850
C          0.10910       -0.25880        3.88460
O          0.57730        1.01320       -1.23150
C         -0.81870        1.28000       -1.09520
C         -1.37690        1.96680       -2.33240
Cu         3.51060        0.00290        0.08620
Br         2.94720        2.42720        0.18780
C          3.46970       -2.01500       -0.36420
C          3.11700       -2.97200        0.48470
P          5.97060        0.00290        0.08620
C          6.60650       -0.82400       -1.50100
C          7.27090       -0.07910       -2.51570
C          7.67120       -0.63070       -3.73830
C          7.37610       -1.94950       -4.03510
C          6.66250       -2.70590       -3.11810
C          6.27350       -2.14960       -1.88440
C          6.69370        1.71970        0.08170
C          6.03290        2.80760        0.65680
C          6.52450        4.11490        0.56510
C          7.74650        4.35730       -0.05410
C          8.50090        3.28160       -0.51070
C          7.99770        1.98070       -0.41130
C          6.61550       -0.90370        1.59420
C          6.31030       -2.37430        1.92600
C          7.18180       -3.36800        1.14470
C          8.67510       -3.03380        1.22130
C          8.95400       -1.56420        0.86460
C          8.13220       -0.66430        1.78700
H          1.35030       -2.02440       -1.56510
H          0.09270       -1.03210       -2.36330
H         -0.22700       -3.83390       -1.18210
H         -0.06890       -3.36430       -2.91240
H         -1.53000       -2.84610       -1.99400
H          1.77960       -0.94280        2.70890
H          0.13110       -1.56190        2.18860
H          0.64390        0.63400        4.27660
H          0.18360       -1.07850        4.62780
H         -0.96280        0.00840        3.75100
H         -1.02690        1.89900       -0.19480
H         -1.44260        0.36520       -1.01760
H         -0.92580        2.96670       -2.45330
H         -2.47850        2.07860       -2.21420
H         -1.19130        1.34440       -3.22930
H          3.65860       -2.27620       -1.39680
H          2.85990       -2.73790        1.50720
H          3.07300       -4.00190        0.13850
H          7.47530        0.96340       -2.45960
H          8.18510       -0.01700       -4.46790
H          7.66710       -2.36910       -4.99220
H          6.38400       -3.71930       -3.37420
H          5.67760       -2.78980       -1.28390
H          5.13990        2.65820        1.20020
H          5.95840        4.93910        0.97890
H          8.12500        5.36770       -0.14210
H          9.47640        3.45540       -0.94780
H          8.63860        1.18260       -0.75560
H          6.12710       -0.31290        2.40750
H          5.23420       -2.57740        1.84960
H          6.57570       -2.51700        2.99980
H          6.92970       -3.36240        0.11440
H          6.99090       -4.39660        1.50420
H          9.23270       -3.69780        0.52410
H          9.03160       -3.21780        2.25410
H          8.71390       -1.35530       -0.19550
H         10.03780       -1.35680        0.99510
H          8.40060        0.39980        1.64210
H          8.41940       -0.89930        2.83680
