28

N          1.06260        0.05710        0.05320
C          0.59780       -0.31000       -1.29540
C          0.60170       -0.93420        1.04290
C          0.44670        1.35500        0.40510
Cu         3.16260        0.05710        0.05320
Br         3.16260       -2.45700       -0.56920
C          3.16260        2.14410        0.56980
C          3.55680        2.66960        1.72930
O          5.21260        0.05710        0.05320
C          6.00150        1.09540        0.25920
N          7.30330        0.75330        0.19980
C          7.29230       -0.56730       -0.05730
C          5.99160       -0.98750       -0.15530
H         -0.50820       -0.33930       -1.35420
H          0.94990       -1.31780       -1.59410
H          0.98270        0.41110       -2.04410
H         -0.51260       -0.97610        1.09450
H          0.99630       -0.68020        2.05140
H          0.94140       -1.95570        0.80130
H         -0.66550        1.28040        0.42400
H          0.69030        2.13430       -0.34660
H          0.76520        1.68430        1.41630
H          2.83510        2.82430       -0.20950
H          3.92560        2.05590        2.53930
H          3.52470        3.75180        1.84580
H          5.69400        2.10770        0.44030
H          8.18030       -1.17600       -0.16480
H          5.70240       -1.99960       -0.34500
