70

P          0.97580        0.08830        0.04010
O         -0.21600       -0.39540        1.19280
C          0.04410       -1.77950        1.50740
C         -0.43880       -2.17740        2.89480
O          0.51500        1.71010       -0.23200
C          0.58620        2.48070        0.93330
C         -0.07290        3.82220        0.62030
O          0.50580       -1.10250       -1.11640
C         -0.90030       -0.95170       -1.37320
C         -1.46100       -2.15640       -2.11070
Cu         3.43580        0.08830        0.04010
Br         3.43580        0.89560       -2.42080
C          3.43580       -0.58180        2.08300
C          4.13730       -0.16220        3.13810
P          5.89580        0.08830        0.04010
C          6.57760        0.61960       -1.58620
C          7.11530        1.89660       -1.78690
C          7.49490        2.31860       -3.08060
C          7.36340        1.45690       -4.15770
C          6.81180        0.19330       -3.97970
C          6.38880       -0.20200       -2.72810
C          6.44690        1.37530        1.18570
C          5.56470        2.28190        1.79540
C          6.04740        3.22140        2.71540
C          7.41620        3.29720        2.99020
C          8.30530        2.43650        2.34390
C          7.82310        1.47780        1.44960
C          6.48300       -1.72420        0.30150
C          6.24120       -2.58590        1.43870
O          5.66380       -2.13170        2.56370
C          5.78670       -2.71390        3.82110
C          6.64760       -3.94770        1.40520
C          7.32280       -4.48140        0.33210
C          7.67140       -3.66330       -0.71680
C          7.27980       -2.32250       -0.71910
H          1.10560       -2.06950        1.44270
H         -0.44980       -2.46100        0.78950
H          0.02060       -1.54660        3.68270
H         -0.15100       -3.23800        3.08890
H         -1.54360       -2.10810        2.93760
H          1.64800        2.65640        1.20690
H          0.02190        2.02340        1.77520
H          0.43720        4.30760       -0.24070
H         -0.02100        4.49890        1.49710
H         -1.14120        3.66940        0.34830
H         -1.11330       -0.01970       -1.93380
H         -1.53930       -0.94090       -0.46530
H         -1.01560       -2.22950       -3.11890
H         -2.56640       -2.04420       -2.20450
H         -1.26610       -3.08840       -1.53550
H          2.65200       -1.23610        2.38530
H          4.96740        0.48920        3.12570
H          3.88340       -0.53980        4.12030
H          7.18850        2.61870       -0.99380
H          7.86520        3.31010       -3.24390
H          7.66600        1.76350       -5.16540
H          6.69170       -0.48620       -4.83080
H          5.91170       -1.17360       -2.63720
H          4.50170        2.22880        1.59720
H          5.36010        3.88600        3.22240
H          7.78900        4.02420        3.70040
H          9.36750        2.50410        2.54380
H          8.52390        0.80880        0.96460
H          5.20600       -2.16000        4.57570
H          6.85190       -2.67850        4.14050
H          5.39750       -3.75020        3.84700
H          6.44420       -4.63000        2.21530
H          7.61040       -5.52760        0.33040
H          8.24360       -4.06770       -1.53690
H          7.64880       -1.80120       -1.56550
