72

P          1.04290       -0.07830        0.04500
C         -0.09470        0.28640       -1.38940
C          0.03260        1.71420       -1.93300
C         -0.55690        1.58730       -3.33540
C          0.18040        0.36760       -3.84460
C          0.17700       -0.58060       -2.64760
C          0.49410       -1.88530        0.27500
C          0.84310       -2.98950       -0.74270
C          0.25850       -4.21440       -0.04130
C          0.73420       -4.07170        1.39180
C          0.96040       -2.56190        1.56230
C          0.28620        1.14580        1.24660
C         -1.21020        0.86170        1.50220
C         -1.50880        1.67700        2.75160
C         -0.35080        1.28640        3.63480
C          0.85120        1.20200        2.68320
Cu         3.50290       -0.07830        0.04500
Br         3.50290       -0.82340        2.52550
C          3.50290        0.54010       -2.01410
C          3.61700        1.81760       -2.37480
P          5.96290       -0.07830        0.04500
C          7.07650       -0.78100       -1.25510
C          6.26920        1.49050       -0.86490
C          6.90230       -0.56300        1.60890
C          6.62820       -2.04710        1.94680
C          8.43210       -0.42490        1.42810
C          6.57830        0.39650        2.78460
H         -1.16220        0.13980       -1.13580
H          1.09810        1.98540       -2.04270
H         -0.44890        2.49450       -1.31060
H         -0.39880        2.47690       -3.98310
H         -1.64610        1.37060       -3.26440
H          1.23550        0.68210       -4.02750
H         -0.19390       -0.08540       -4.78960
H          1.15040       -1.11190       -2.65860
H         -0.67330       -1.29110       -2.74620
H         -0.61870       -1.84690        0.31810
H          1.94580       -3.08770       -0.85180
H          0.37590       -2.92520       -1.73500
H          0.48300       -5.20090       -0.49730
H         -0.85140       -4.09470       -0.03650
H          1.72020       -4.58430        1.49710
H          0.02560       -4.53260        2.11150
H          2.04450       -2.50170        1.50450
H          0.58620       -2.12440        2.51210
H          0.35260        2.18300        0.85390
H         -1.34400       -0.21980        1.77470
H         -1.89810        1.10050        0.67660
H         -2.49490        1.44860        3.21870
H         -1.45330        2.75920        2.51000
H         -0.57800        0.24570        3.97690
H         -0.18940        1.89120        4.55230
H          1.34430        0.29420        3.01070
H          1.52480        2.08420        2.76540
H          3.38440       -0.21930       -2.77880
H          3.73740        2.58850       -1.62260
H          3.61520        2.09020       -3.42530
H          6.65110       -0.63010       -2.27140
H          7.09490       -1.88380       -1.12190
H          8.11620       -0.40380       -1.24620
H          5.98610        1.47700       -1.92920
H          7.35940        1.71950       -0.84920
H          5.78460        2.32850       -0.32800
H          6.97080       -2.70010        1.11650
H          5.56990       -2.29100        2.09570
H          7.17170       -2.35320        2.86600
H          8.84060       -1.12730        0.67460
H          8.95760       -0.68150        2.37600
H          8.70510        0.61730        1.15610
H          5.53640        0.49330        3.07590
H          6.89490        1.43080        2.53510
H          7.12050        0.07980        3.70300
