84

C          0.90100       -0.64300       -0.00200
N         -0.36940       -1.12520       -0.29040
C         -0.98890       -2.52980       -0.27530
C         -0.21460       -3.83600       -0.00060
C          1.30040       -4.22360       -0.08190
C          2.06870       -4.61770        1.18580
C          1.65570       -5.36360       -1.06430
C         -0.91130       -5.00760        0.29710
C         -2.25530       -5.09800        0.28640
C         -3.00520       -4.02020       -0.08030
C         -2.46850       -2.75100       -0.36770
C         -3.56640       -1.71700       -0.79080
C         -3.40430       -1.29930       -2.28240
C         -5.05720       -2.17470       -0.68730
C         -1.07700        0.02080       -0.48220
C         -0.21950        1.11380       -0.42800
N          1.01480        0.78800       -0.09660
C          2.10720        1.86110       -0.04400
C          1.99980        3.16960        0.67540
C          0.86320        3.91080        1.43230
C          0.59830        5.28440        0.72760
C         -0.48820        3.25400        1.65020
C          3.15480        4.00660        0.79960
C          4.34610        3.74620        0.21480
C          4.44900        2.66820       -0.56500
C          3.38310        1.75200       -0.76390
C          3.72920        0.72090       -1.75310
C          4.33140        1.27210       -3.09500
C          4.70090       -0.18360       -1.06960
Cu         2.65840       -1.88140       -0.01350
Br         1.55550       -1.87120       -2.41650
C          1.21050       -2.17650        1.98370
C          0.09540       -1.55670        2.50570
N          4.37500       -3.09110       -0.02470
C          4.33740       -3.60640       -1.41760
N          5.58750       -2.41320        0.08040
C          6.61110       -3.14830        0.35670
C          6.19410       -4.34520        0.80510
C          4.83950       -4.25130        0.75220
H          1.79620       -3.46030       -0.54350
H          1.77600       -5.35520        1.93310
H          2.73450       -3.82600        1.58300
H          2.73610       -3.83380        1.59800
H          1.11090       -6.29890       -0.89400
H          2.70870       -5.68640       -0.90680
H          1.58870       -5.03600       -2.12070
H         -0.39910       -5.92570        0.54520
H         -2.72950       -6.04630        0.51700
H         -4.04740       -4.26790       -0.09960
H         -3.56390       -0.87080       -0.07760
H         -3.51300       -2.19030       -2.93760
H         -2.43010       -0.84600       -2.53840
H         -4.19290       -0.56670       -2.56640
H         -5.27110       -3.02680       -1.37210
H         -5.75400       -1.35740       -0.97760
H         -5.31510       -2.45730        0.35700
H         -2.04460        0.22010       -0.74250
H         -0.52710        2.12220       -0.70850
H          1.24500        4.09470        2.46260
H          0.29980        5.12140       -0.33200
H          1.48010        5.96380        0.68650
H         -0.18670        5.87060        1.24090
H         -1.12590        3.33190        0.76040
H         -1.04150        3.86090        2.39970
H         -0.36120        2.23040        2.04620
H          3.16660        4.92010        1.37900
H          5.19220        4.41730        0.31980
H          5.41020        2.54020       -1.05080
H          2.83400        0.17870       -1.99090
H          4.78380        2.28150       -3.03540
H          3.56790        1.36370       -3.89040
H          5.18290        0.64110       -3.43930
H          5.66930        0.29240       -0.82330
H          4.87490       -1.02940       -1.75190
H          4.24580       -0.48770       -0.10340
H          1.33820       -2.98340        2.70840
H         -0.32790       -0.61380        2.19560
H         -0.42100       -2.00920        3.37100
H          5.16880       -3.22730       -2.05540
H          3.45880       -3.31640       -1.94190
H          4.42250       -4.70490       -1.53570
H          7.64550       -2.83890        0.31110
H          6.76060       -5.18610        1.19280
H          4.33450       -5.13930        1.09170
