54

N          0.99920       -0.08330       -0.05530
C          0.85010        1.28330       -0.57210
C          0.36950       -0.08050        1.26920
C          0.30660       -1.04750       -0.89430
C          0.74690       -2.38660       -0.94250
C          0.07600       -3.33470       -1.72800
C         -1.05580       -2.97310       -2.46120
C         -1.52990       -1.66810       -2.40670
C         -0.86910       -0.71770       -1.63310
Cu         3.09920       -0.08330       -0.05530
Br         3.09920        0.87410        2.35120
C          3.09920       -0.87800       -2.05300
C          4.08560       -1.24340       -2.86850
P          5.55920       -0.08330       -0.05530
C          7.05530       -0.72490       -0.89320
C          5.85750        1.60560       -0.65990
C          6.58940        2.52220        0.12130
C          6.91720        3.78540       -0.37210
C          6.50260        4.16400       -1.64400
C          5.75810        3.27770       -2.42830
C          5.44310        2.00160       -1.94140
C          6.01140       -0.49120        1.65960
C          5.16840       -1.33940        2.41870
C          5.51560       -1.69530        3.71200
C          6.72560       -1.25570        4.26100
C          7.58150       -0.45540        3.52040
C          7.23350       -0.08830        2.22080
H         -0.19120        1.66390       -0.56980
H          1.27020        1.34720       -1.60000
H          1.43810        1.99220        0.04930
H         -0.74090       -0.04170        1.18630
H          0.60620        0.80980        1.88020
H          0.64580       -1.00250        1.82350
H          1.61760       -2.69020       -0.37650
H          0.43130       -4.35500       -1.77210
H         -1.57540       -3.70430       -3.06850
H         -2.41580       -1.38650       -2.96450
H         -1.30560        0.26780       -1.63460
H          2.13390       -0.99250       -2.51600
H          5.11830       -1.20440       -2.61840
H          3.82270       -1.60860       -3.86150
H          7.04590       -0.54570       -1.98570
H          7.00550       -1.83340       -0.75620
H          8.00680       -0.37050       -0.46880
H          6.93760        2.27620        1.10460
H          7.50290        4.46710        0.23280
H          6.76050        5.14530       -2.02740
H          5.43860        3.57610       -3.41770
H          4.89090        1.32710       -2.57670
H          4.24830       -1.70470        1.98820
H          4.84660       -2.32500        4.29650
H          6.96900       -1.53130        5.27610
H          8.51120       -0.12950        3.96370
H          7.95210        0.50470        1.67850
