93

P          0.96600        0.05310        0.07760
C         -0.13110       -0.83050        1.33740
C         -0.04040       -2.37190        1.29310
C         -0.52960       -2.79940        2.66450
C          0.22430       -1.85760        3.57340
C          0.23000       -0.52390        2.81710
C          0.45730        1.82880        0.51090
C          0.85500        2.42610        1.87270
C          0.47450        3.89530        1.68400
C          1.04130        4.23220        0.32250
C          1.03420        2.88880       -0.41610
C          0.35860       -0.94210       -1.39670
C         -1.17550       -0.85670       -1.54200
C         -1.42660       -1.26170       -2.97610
C         -0.38460       -0.41740       -3.67170
C          0.86550       -0.63470       -2.82850
Cu         3.42600        0.05310        0.07760
Br         3.42600        1.57260       -2.01990
C          3.42600       -1.20820        1.81880
C          3.31480       -2.53600        1.77960
P          5.88600        0.05310        0.07760
C          6.31660        1.70580        1.01800
C          5.64900        1.70890        2.41510
C          7.78400        2.09920        1.27670
C          5.66030        2.90100        0.29070
C          6.59650       -1.39960        1.20510
C          6.09870       -2.68080        0.49960
C          8.14500       -1.66230        1.29230
C          6.26870       -1.36230        2.73230
C          6.39670        0.48260       -1.70600
C          7.88900        0.41900       -2.28770
C          8.56050       -0.93650       -2.08860
C          7.82360        0.65000       -3.82140
C          8.84530        1.47350       -1.72120
H         -1.20700       -0.58570        1.20830
H          0.99790       -2.68980        1.18920
H         -0.60220       -2.86450        0.47730
H         -0.33280       -3.87130        2.89890
H         -1.61410       -2.59790        2.73730
H          1.26950       -2.23150        3.62600
H         -0.15650       -1.80050        4.61750
H          1.23060       -0.07150        2.96170
H         -0.55330        0.13660        3.23950
H         -0.65320        1.88550        0.43770
H          1.95260        2.33020        2.02610
H          0.31650        2.03130        2.74570
H          0.80220        4.58660        2.48810
H         -0.63650        3.95040        1.60440
H          2.10700        4.54960        0.45760
H          0.51120        5.06200       -0.18200
H          2.08250        2.65290       -0.35910
H          0.67290        2.89160       -1.46920
H          0.63480       -2.00870       -1.23200
H         -1.48930        0.20910       -1.43150
H         -1.77320       -1.45330       -0.82200
H         -2.46170       -1.05220       -3.32270
H         -1.20320       -2.34460       -3.11090
H         -0.69410        0.65040       -3.57390
H         -0.24130       -0.63560       -4.75170
H          1.53050        0.20140       -2.96190
H          1.36120       -1.56230       -3.19510
H          3.39660       -0.71680        2.78230
H          3.22300       -3.05940        0.83460
H          3.27110       -3.11680        2.69220
H          6.18970        1.11310        3.15450
H          4.58660        1.40860        2.35760
H          5.68130        2.72300        2.87380
H          8.39170        1.28590        1.69660
H          7.84330        2.92480        2.02210
H          8.25140        2.59970        0.42590
H          4.56790        2.75050        0.20560
H          6.10200        3.08550       -0.70420
H          5.81520        3.84840        0.85350
H          6.64930       -2.83440       -0.45440
H          5.08470       -2.58820        0.12200
H          6.23430       -3.59590        1.11760
H          8.59620       -2.21320        0.45890
H          8.36800       -2.43490        2.06860
H          8.74040       -0.78420        1.58030
H          5.35330       -0.94950        3.09260
H          7.02560       -0.76820        3.28560
H          6.35140       -2.37890        3.17640
H          5.99680        1.44980       -2.01640
H          5.86060       -0.29290       -2.29270
H          7.93580       -1.78250       -2.43950
H          8.79520       -1.00970       -1.04450
H          9.55840       -0.98680       -2.58100
H          7.22920       -0.14920       -4.31200
H          8.84660        0.60880       -4.25980
H          7.39700        1.63990       -4.05860
H          9.14830        1.18360       -0.69800
H          8.40410        2.49090       -1.79130
H          9.81290        1.48770       -2.26980
