61

N          1.08050       -0.02260        0.05490
C          1.05430        1.45190        0.03340
C          0.52430       -0.38330        1.37430
C          0.22770       -0.53220       -1.01800
C         -0.37580        0.30520       -2.01960
C         -1.28540       -0.20010       -2.94580
C         -1.62690       -1.54430       -2.92600
C         -1.05460       -2.39150       -1.97690
C         -0.14720       -1.89720       -1.02880
Cu         3.18050       -0.02260        0.05490
Br         3.32040        0.62570        2.47240
C          3.42780       -0.47940       -2.01000
C          2.58450       -0.96230       -2.92020
P          5.64050       -0.02260        0.05490
C          6.79510        0.29750        1.42750
C          7.65090       -0.67440        1.98630
C          8.42330       -0.35490        3.11350
C          8.36340        0.92280        3.68130
C          7.51970        1.88660        3.13670
C          6.73330        1.57310        2.02980
C          6.10670       -1.59380       -0.71190
C          6.89570       -1.64730       -1.87150
C          7.29320       -2.88530       -2.39570
C          6.90290       -4.07360       -1.77100
C          6.11430       -4.02800       -0.61970
C          5.72010       -2.79410       -0.09000
C          6.05900        1.48650       -0.89330
C          5.06930        2.39470       -1.29520
C          5.44690        3.58760       -1.92270
C          6.79550        3.88110       -2.13910
C          7.76190        2.95090       -1.73230
O          8.95330        3.19610       -1.90400
N          7.37610        1.77840       -1.13500
H          0.02500        1.86890        0.11910
H          1.54470        1.81980       -0.89590
H          1.65760        1.90380        0.84010
H         -0.57230       -0.58350        1.31410
H          0.58280        0.41970        2.14640
H          1.02620       -1.28630        1.77070
H         -0.19620        1.36620       -2.10230
H         -1.73960        0.46490       -3.67130
H         -2.34320       -1.92510       -3.64310
H         -1.33310       -3.43790       -1.96720
H          0.25640       -2.57930       -0.29260
H          4.42250       -0.30680       -2.40090
H          1.60900       -1.30540       -2.71840
H          2.91290       -1.11550       -3.94000
H          7.68940       -1.67200        1.58310
H          9.06310       -1.10250        3.55950
H          8.96060        1.16540        4.55200
H          7.46180        2.87460        3.57900
H          6.06610        2.33510        1.64680
H          7.22190       -0.73990       -2.35890
H          7.91340       -2.92660       -3.28160
H          7.21570       -5.02910       -2.17420
H          5.81730       -4.94950       -0.13300
H          5.12170       -2.77570        0.81270
H          4.02550        2.20320       -1.10000
H          4.69150        4.30880       -2.21850
H          7.08430        4.81150       -2.60590
H          8.11970        1.12320       -0.81090
