108

P          0.94920       -0.07410       -0.04400
C         -0.08350        1.09450       -1.27460
C         -1.60590        1.24910       -1.77280
C         -2.52920        2.20210       -0.98320
C         -1.89030        3.58460       -0.90800
C         -0.45820        3.50970       -0.36790
C          0.41660        2.56360       -1.21420
C          0.54730       -1.99530       -0.52460
C         -0.88860       -2.62600       -0.34010
C         -1.90230       -2.00000       -1.26770
C         -1.48200       -2.18500       -2.76190
C          0.01310       -1.97540       -3.05460
C          0.84860       -2.59080       -1.93990
C          0.35570        0.65090        1.72810
C         -1.17460        0.60100        2.14040
C         -1.70750       -0.71040        2.75810
C         -0.85290       -1.23930        3.90550
C          0.62290       -1.19190        3.53660
C          1.01600        0.22340        3.08820
Cu         3.40920       -0.07410       -0.04400
Br         3.40920       -1.58690        2.05820
C          3.40920        1.18180       -1.78920
C          4.37920        2.07000       -2.02060
C          5.55920       -0.07410       -0.04400
N          6.27910        0.25030        1.00400
C          5.90770        0.98920        2.27340
C          6.81740        1.13280        3.43570
C          8.27340        0.72500        3.63600
C          6.38710        1.78200        4.62200
C          5.14420        2.34770        4.75400
C          4.68690        3.01980        6.01670
C          4.30370        2.31800        3.67640
C          4.63630        1.68340        2.47120
C          3.54660        1.87440        1.48300
C          7.66480        0.02200        0.67010
C          7.67100       -0.78440       -0.59150
N          6.36520       -0.67960       -1.16190
C          6.14660       -1.20870       -2.57460
C          7.14440       -1.86510       -3.43370
C          8.42650       -2.52600       -3.01000
C          6.90420       -2.02850       -4.84230
C          5.69110       -1.64470       -5.42260
C          5.34620       -1.74180       -6.88000
C          4.67120       -1.30790       -4.56600
C          4.89780       -1.17560       -3.20450
C          3.74560       -1.37010       -2.42200
H          0.39860        0.75220       -2.18490
H         -2.17490        0.38910       -2.12320
H         -1.54050        1.74970       -2.76520
H         -2.80670        1.85190        0.00370
H         -3.51130        2.29700       -1.49640
H         -2.50950        4.25650       -0.27440
H         -1.86700        4.00870       -1.93540
H         -0.48900        3.20400        0.68540
H         -0.01910        4.52860       -0.41990
H          1.46930        2.61500       -0.89380
H          0.38360        2.97540       -2.25430
H          1.16620       -2.57640        0.18950
H         -0.90180       -3.71880       -0.55960
H         -1.22740       -2.68280        0.66880
H         -1.95320       -1.01440       -0.82360
H         -2.92060       -2.42940       -1.15290
H         -2.09520       -1.57640       -3.46400
H         -1.67980       -3.24990       -3.00350
H          0.28530       -0.93620       -3.19020
H          0.26690       -2.44710       -4.03040
H          1.85070       -2.65870       -2.19160
H          0.65280       -3.68870       -1.95940
H          0.61070        1.71400        1.63860
H         -1.81850        0.84400        1.32880
H         -1.35060        1.36260        2.93790
H         -1.73750       -1.43070        1.99220
H         -2.76210       -0.62130        3.10080
H         -1.14250       -2.28640        4.15940
H         -1.02090       -0.61240        4.80600
H          0.83060       -1.91430        2.72550
H          1.20840       -1.46900        4.44150
H          2.08990        0.35910        3.15330
H          0.67630        0.92110        3.89550
H          2.59460        1.14130       -2.49990
H          5.21480        2.17990       -1.34070
H          4.33820        2.70840       -2.89600
H          8.91870        0.36870        2.84700
H          8.33050       -0.01110        4.46490
H          8.84290        1.63180        3.94710
H          7.05350        1.86720        5.47660
H          5.46380        2.99950        6.80540
H          3.78430        2.49270        6.40160
H          4.41590        4.07530        5.80630
H          3.34650        2.80800        3.81190
H          2.72000        2.53650        1.81380
H          3.01790        0.96350        1.47330
H          3.89490        2.29170        0.53550
H          8.18570       -0.63370        1.37480
H          8.13470        1.01730        0.49200
H          7.75070       -1.85970       -0.28020
H          8.48930       -0.45930       -1.26030
H          8.55690       -2.69610       -1.92970
H          9.32590       -2.06980       -3.44280
H          8.36690       -3.58480       -3.35210
H          7.65440       -2.45560       -5.47910
H          6.16520       -2.16110       -7.48840
H          5.10980       -0.71610       -7.24650
H          4.42770       -2.35680       -7.01850
H          3.66840       -1.20530       -4.97310
H          2.80690       -0.99440       -2.88910
H          3.96910       -1.06650       -1.49210
H          3.79440       -2.41110       -2.05630
