96

P          0.93930        0.07650        0.02130
C          0.27930        0.14250        1.86630
C          0.56950        1.43470        2.69720
C         -0.51260        2.54570        2.61240
C         -1.96510        2.03970        2.64820
C         -2.20690        0.69210        1.91590
C         -1.13880       -0.28530        2.35730
C          0.64320        1.35310       -1.43980
C         -0.81410        1.62800       -1.89070
C         -1.54880        2.64730       -1.01770
C         -0.82410        3.97960       -0.95070
C          0.66060        3.78330       -0.59360
C          1.31830        2.75220       -1.49020
C          0.42800       -1.76350       -0.33770
C         -1.08430       -2.29660       -0.37700
C         -1.94450       -2.01880       -1.62160
C         -1.21650       -2.43630       -2.89620
C          0.20580       -1.86660       -2.92890
C          1.01440       -2.29760       -1.66870
Cu         3.39930        0.07650        0.02130
Br         3.56950        0.02650       -2.47450
C          3.50420        0.03600        2.07520
C          3.42040       -1.13100        2.70440
P          5.85930        0.07650        0.02130
C          6.88430       -0.16010        1.50280
C          7.72000       -1.29020        1.66460
C          8.39170       -1.51730        2.87100
C          8.24540       -0.60800        3.92740
C          7.43520        0.50990        3.78230
C          6.75380        0.73670        2.57580
C          6.39260       -1.11240       -1.24040
C          7.17780       -0.71940       -2.33850
C          7.66040       -1.66300       -3.24070
C          7.36640       -3.02280       -3.05900
C          6.57110       -3.42260       -1.98490
C          6.08550       -2.47440       -1.07600
C          6.30890        1.78150       -0.47380
C          7.65030        2.27130       -0.63500
C          8.91590        1.48860       -0.36000
C          7.84580        3.58710       -1.09550
C          6.77030        4.41810       -1.38270
C          5.47120        3.95360       -1.20910
C          5.25300        2.65050       -0.75180
H          0.90660       -0.64650        2.32590
H          1.58390        1.84700        2.53350
H          0.55920        1.11750        3.76950
H         -0.46170        3.13290        1.72350
H         -0.35170        3.28570        3.42650
H         -2.64680        2.84020        2.26850
H         -2.21930        1.87130        3.71260
H         -2.19170        0.63970        0.81630
H         -3.22030        0.35370        2.19160
H         -1.36120       -1.32200        2.16850
H         -1.16790       -0.30530        3.47010
H          1.11340        0.85320       -2.28390
H         -1.37300        0.71440       -1.98930
H         -0.81120        2.05480       -2.92460
H         -1.59470        2.30740        0.00240
H         -2.58930        2.78180       -1.37570
H         -1.34990        4.62470       -0.20690
H         -0.92550        4.46380       -1.94560
H          0.88930        3.39590        0.38970
H          1.15570        4.77000       -0.65880
H          2.37710        2.68210       -1.26700
H          1.23720        3.15620       -2.52510
H          0.91170       -2.31110        0.49610
H         -1.74220       -2.05120        0.44070
H         -1.01550       -3.40560       -0.33700
H         -2.27220       -0.98260       -1.63270
H         -2.90100       -2.58470       -1.56290
H         -1.79800       -2.10970       -3.78420
H         -1.14790       -3.54440       -2.91750
H          0.13480       -0.78140       -3.03330
H          0.71020       -2.24920       -3.83960
H          2.07540       -2.03200       -1.73790
H          0.98290       -3.40990       -1.65150
H          3.69570        0.94740        2.63130
H          3.25630       -2.03390        2.12770
H          3.50640       -1.18160        3.78390
H          7.83050       -2.01710        0.87920
H          9.01990       -2.38620        2.99300
H          8.76770       -0.79090        4.87070
H          7.32430        1.20940        4.60280
H          6.10560        1.60320        2.49320
H          7.43150        0.31680       -2.49890
H          8.28780       -1.35910       -4.06750
H          7.75270       -3.75670       -3.75740
H          6.34510       -4.47320       -1.84630
H          5.49750       -2.80220       -0.23080
H          8.82750        0.73180        0.41960
H          9.69320        2.17100        0.04900
H          9.31750        1.03500       -1.28640
H          8.85010        3.97780       -1.23420
H          6.94480        5.42400       -1.74110
H          4.63300        4.59900       -1.43510
H          4.25900        2.28990       -0.62140
