34

O         -0.32800       -1.08200        0.00300
C         -0.34380       -0.27170        1.03160
N          0.21220        0.91660        0.72220
C          0.63440        0.76670       -0.55040
C          0.27720       -0.48840       -0.99480
Cu        -0.91570       -3.04590        0.01600
Br         0.99140       -3.60560        1.67660
C         -2.49890       -2.58130       -1.36250
C         -2.65790       -1.38950       -1.94540
N         -1.51780       -5.05770        0.02930
C         -0.89490       -6.14080        0.58100
N         -1.50310       -7.31200        0.19350
C         -1.02490       -8.68160        0.24250
C          0.32100       -8.96090        0.53850
C          0.82000      -10.26410        0.42000
C         -0.01990      -11.30350        0.01790
C         -1.36340      -11.04750       -0.25300
C         -1.86390       -9.75280       -0.14470
C         -2.58970       -6.94140       -0.48070
C         -2.58020       -5.59350       -0.62060
H         -0.81900       -0.49690        1.97780
H          1.20110        1.50740       -1.09820
H          0.53310       -0.94990       -1.94000
H         -3.26730       -3.25160       -1.65460
H         -2.01580       -0.54930       -1.77400
H         -3.49050       -1.22980       -2.62430
H          0.05020       -6.09280        1.09720
H          1.01650       -8.17130        0.80950
H          1.86660      -10.46960        0.61050
H          0.36550      -12.30940       -0.09630
H         -2.01570      -11.84820       -0.57530
H         -2.90190       -9.60310       -0.39270
H         -3.32410       -7.58420       -0.94000
H         -3.35920       -5.12320       -1.16520
