49

P          1.01630       -0.00940       -0.09820
N         -0.00110       -0.08160        1.39170
C         -1.40290        0.27410        1.48540
C          0.47820       -0.99710        2.44950
N          0.40770        1.55790       -0.69740
C          0.96010        2.70930        0.01890
C          0.58350        1.70680       -2.14790
N          0.63670       -1.60730       -0.81770
C          1.00130       -2.78240       -0.01620
C         -0.76460       -1.70750       -1.25940
Cu         3.47630       -0.00940       -0.09820
Br         3.47630       -0.15230       -2.68430
C          3.47630        0.10920        2.04850
C          3.02000        1.18380        2.68480
N          5.57630       -0.00940       -0.09820
C          6.30300        0.01130       -1.26360
N          7.66690       -0.03170       -1.26530
C          8.37250       -0.12330       -0.11510
O          9.72880       -0.19610       -0.13310
C         10.47220       -0.18440       -1.30230
C          7.69820       -0.13580        1.08930
C          6.29880       -0.06730        1.07570
H         -1.63550        1.16200        0.87040
H         -1.62200        0.53840        2.54410
H         -2.04600       -0.58880        1.25320
H          1.48240       -1.40630        2.24210
H         -0.21410       -1.85230        2.57960
H          0.55110       -0.45570        3.42200
H          0.70080        2.64310        1.09240
H          0.48570        3.63980       -0.36270
H          2.05860        2.78030       -0.13070
H          0.06020        0.89910       -2.69700
H          1.64990        1.72730       -2.42570
H          0.14180        2.66260       -2.49630
H          2.01100       -2.67230        0.42730
H          1.02280       -3.67870       -0.67160
H          0.24350       -3.00620        0.76340
H         -1.04300       -0.85770       -1.91170
H         -1.46620       -1.75680       -0.41220
H         -0.91480       -2.63940       -1.84830
H          3.81000       -0.74740        2.62650
H          2.65790        2.03430        2.12900
H          2.99760        1.20700        3.76950
H          5.87540        0.08730       -2.22710
H         11.55270       -0.27200       -1.04270
H         10.31600        0.76420       -1.85310
H         10.19820       -1.04670       -1.94720
H          8.23580       -0.21150        2.01860
H          5.84300       -0.10150        2.04120
