63

P          1.09340        0.01870        0.03030
O         -0.02680        0.01110        1.34180
C          0.50020       -0.90250        2.35290
C         -0.08740       -0.61480        3.73480
C          0.34270       -2.41710        2.08230
O          0.66170        1.35350       -0.95700
C          0.83000        2.62930       -0.41570
C          2.31050        2.99380       -0.30370
C          0.18160        3.58810       -1.42900
O          0.49510       -1.47110       -0.64060
C         -0.95980       -1.54360       -0.62570
C         -1.65220       -0.63850       -1.65420
C         -1.42500       -2.98990       -0.81840
Cu         3.55340        0.01870        0.03030
Br         3.07630       -0.23470       -2.43180
C          3.63200        0.37410        2.11660
C          2.90800        1.23640        2.83700
N          5.65340        0.01870        0.03030
C          6.31220        0.65210        1.06220
C          7.69540        0.82400        1.07450
C          8.46850        0.31150        0.05540
C          7.85810       -0.40230       -0.96810
C          8.64720       -0.99460       -1.96220
C          8.06250       -1.77660       -2.95420
C          6.67930       -2.01880       -2.93940
C          5.99230       -2.87120       -3.96390
O          4.80340       -3.12400       -3.82330
C          6.65010       -3.38660       -5.21580
C          5.91010       -1.42720       -1.92060
C          6.44220       -0.55630       -0.96320
H          1.57550       -0.79450        2.48400
H         -1.18520       -0.76420        3.72930
H          0.16420        0.41160        4.06570
H          0.35270       -1.31760        4.48430
H         -0.72270       -2.70440        2.01510
H          0.79390       -3.00670        2.91120
H          0.91760       -2.75460        1.19960
H          0.29420        2.72080        0.55390
H          2.80950        2.90300       -1.29160
H          2.83200        2.31620        0.38540
H          2.41770        4.03050        0.07410
H          0.69220        3.50420       -2.41730
H          0.24660        4.64200       -1.09110
H         -0.88680        3.32760       -1.59040
H         -1.42140       -1.30250        0.34900
H         -1.31030       -0.87280       -2.67960
H         -1.48940        0.43220       -1.42920
H         -2.75600       -0.78530       -1.59720
H         -1.12730       -3.37640       -1.81000
H         -2.53540       -3.04450       -0.71950
H         -1.00690       -3.65100       -0.03330
H          4.35200       -0.23080        2.66290
H          2.13870        1.85840        2.40670
H          3.06980        1.28160        3.91170
H          5.81590        1.17530        1.85260
H          8.16900        1.37850        1.88170
H          9.54690        0.44310        0.08230
H          9.72400       -0.86970       -1.95850
H          8.71730       -2.21230       -3.68910
H          7.71640       -3.11980       -5.31350
H          6.12500       -2.94460       -6.08810
H          6.55810       -4.49140       -5.26810
H          4.89650       -1.70600       -1.84580
