54

P          1.08560       -0.05140       -0.00600
F         -0.57180        0.17530       -0.06480
F          1.06540       -0.60560       -1.58610
F          0.89400       -0.99250        1.36780
Ni         3.54560       -0.05140       -0.00600
Br         2.98350       -2.47480        0.30450
C          3.55230        1.92900       -0.62240
C          3.08350        2.91160        0.12990
P          6.00560       -0.05140       -0.00600
C          6.56940       -0.93070        1.65550
C          5.95740       -2.32700        1.92870
C          8.06670       -1.10680        2.00600
C          5.95200       -0.04740        2.77140
C          6.38800       -1.37560       -1.37850
C          5.65990       -0.83150       -2.63170
C          7.89140       -1.45540       -1.77820
C          5.98400       -2.84720       -1.23380
C          6.53000        1.76890       -0.00960
C          8.03210        2.32630       -0.02870
C          8.79130        1.97930       -1.31130
C          7.96600        3.86630        0.06120
C          8.91360        1.86970        1.13820
H          3.94140        2.14330       -1.61090
H          2.67540        2.70840        1.11360
H          3.09980        3.92750       -0.25250
H          6.39750       -3.14600        1.36690
H          4.87860       -2.30750        1.89370
H          6.15270       -2.64460        2.97930
H          8.66700       -1.56030        1.20470
H          8.19330       -1.77730        2.88700
H          8.50340       -0.21220        2.46010
H          4.84820        0.02850        2.64610
H          6.36690        0.97780        2.75680
H          6.14730       -0.45820        3.78710
H          6.01730        0.19750       -2.87330
H          4.56550       -0.78830       -2.45980
H          5.85480       -1.46170       -3.52810
H          8.22220       -0.56950       -2.32190
H          8.07100       -2.26280       -2.52190
H          8.54050       -1.68970       -0.91460
H          4.95520       -3.01200       -1.02210
H          6.64570       -3.43340       -0.57310
H          6.12210       -3.38710       -2.20240
H          6.02790        2.21760        0.86950
H          6.07530        2.21330       -0.91510
H          8.21790        2.25600       -2.22030
H          9.04320        0.91800       -1.29970
H          9.78530        2.47970       -1.34270
H          7.41010        4.29440       -0.79590
H          8.99460        4.30010        0.04590
H          7.48820        4.18660        1.01150
H          9.23960        0.83990        0.93840
H          8.41090        2.01890        2.11800
H          9.87740        2.42310        1.16750
