87

P          0.97910        0.09770        0.00500
C          0.20170        0.33840       -1.61360
C         -1.17580        0.32610       -1.87760
C         -1.62520        0.38030       -3.21400
C         -0.70900        0.46850       -4.27460
O         -1.07390        0.45350       -5.59040
C         -2.34330        0.20490       -6.05400
C          0.65600        0.55100       -4.00180
C          1.10260        0.49510       -2.67980
C          0.61270       -1.69920        0.08660
C         -0.15160       -2.43010       -0.85460
C         -0.48250       -3.76150       -0.63370
C         -0.04460       -4.42690        0.52000
O         -0.35890       -5.72610        0.76340
C         -1.17650       -6.50510       -0.03350
C          0.73650       -3.72670        1.44670
C          1.05500       -2.37830        1.23500
C          0.30910        1.37850        1.08280
C          0.16530        1.08510        2.44390
C         -0.28740        2.05620        3.33690
C         -0.59240        3.35330        2.88270
O         -0.99320        4.34240        3.72430
C         -1.14070        4.22060        5.09220
C         -0.46830        3.64070        1.51570
C         -0.03840        2.65650        0.61500
Ni         3.43910        0.09770        0.00500
Br         3.43910       -1.82990       -1.72490
C          3.43910        1.69770        1.44110
C          2.87180        2.88310        1.26580
P          5.89910        0.09770        0.00500
C          6.51660        0.24900        1.74980
C          6.15630       -0.80600        2.63480
C          6.45550       -0.79600        3.99170
C          7.12480        0.28590        4.53400
Cl         7.46580        0.30890        6.25710
C          7.49090        1.35500        3.70450
C          7.19430        1.34190        2.32300
C          6.35270       -1.56130       -0.62510
C          7.25730       -1.72740       -1.68890
C          7.60770       -3.01920       -2.12720
C          7.06240       -4.15140       -1.50960
Cl         7.49710       -5.76740       -2.03770
C          6.15360       -3.99730       -0.46950
C          5.79970       -2.72260       -0.04080
C          6.39230        1.70510       -0.67070
C          5.45670        2.60700       -1.20520
C          5.89360        3.75880       -1.88040
C          7.26160        4.01320       -2.03040
Cl         7.81060        5.42880       -2.91390
C          8.19540        3.11940       -1.50290
C          7.76360        1.97120       -0.83270
H         -1.88620        0.21720       -1.07080
H         -2.68760        0.32260       -3.40230
H         -2.32420        0.20290       -7.16700
H         -3.04430        0.98860       -5.70870
H         -2.68590       -0.79940       -5.71700
H          1.38470        0.62320       -4.80030
H          2.16800        0.52860       -2.50030
H         -0.54530       -2.01950       -1.76100
H         -1.09620       -4.25960       -1.37210
H         -1.22840       -7.53130        0.38060
H         -0.76710       -6.56320       -1.06510
H         -2.20340       -6.07850       -0.06150
H          1.08290       -4.22240        2.34500
H          1.63670       -1.85670        1.98530
H          0.41310        0.10230        2.82160
H         -0.37940        1.79080        4.38120
H         -1.45420        5.19640        5.51580
H         -0.17540        3.92950        5.56110
H         -1.91920        3.46420        5.32780
H         -0.68840        4.63690        1.15210
H          0.07560        2.90960       -0.43160
H          4.09410        1.59590        2.29940
H          2.35540        3.10830        0.34830
H          2.99950        3.66010        2.01450
H          5.60680       -1.65860        2.33300
H          6.15160       -1.63180        4.61910
H          7.98950        2.20400        4.14430
H          7.46510        2.20260        1.74200
H          7.69670       -0.86780       -2.17590
H          8.30510       -3.14700       -2.94410
H          5.70760       -4.86240        0.00860
H          5.05220       -2.67570        0.72510
H          4.39720        2.40470       -1.14780
H          5.17250        4.44100       -2.31410
H          9.25560        3.29900       -1.63610
H          8.50320        1.26850       -0.47030
