115

P          1.06480        0.07070       -0.02830
C          0.21460        1.26050       -1.41930
C         -1.17160        1.53510       -1.82800
C         -2.35700        0.86180       -1.24340
C         -1.50080        2.42900       -2.94010
C         -0.51440        3.04750       -3.72450
C         -0.65650        3.94070       -4.95180
C          0.75090        2.77670       -3.40250
C          1.09430        1.94590       -2.33270
C          2.48450        1.76960       -2.38340
C          0.65410       -1.63820       -0.92400
C         -0.08580       -1.90210       -2.14770
C         -0.34170       -0.97340       -3.29110
C         -0.61760       -3.19120       -2.42590
C         -0.37320       -4.28760       -1.61650
C         -0.94720       -5.64510       -1.87940
C          0.46780       -4.12490       -0.55240
C          0.96920       -2.86460       -0.22190
C          1.91550       -2.89480        0.85930
C          0.23510        0.50940        1.66400
C         -0.57350       -0.49100        2.35360
C         -1.09910       -1.78430        1.79800
C         -0.99880       -0.32210        3.68440
C         -0.73610        0.82570        4.39530
C         -1.15970        0.94400        5.84390
C         -0.09500        1.86640        3.74160
C          0.38050        1.75660        2.40090
C          1.02720        3.01260        1.87040
Ni         3.52480        0.07070       -0.02830
Br         3.52480       -0.94510       -2.41080
C          3.52480        0.91390        1.94940
C          4.47670        1.62840        2.55190
C          5.67480        0.07070       -0.02830
N          6.50290       -0.15590        1.12050
C          6.29440       -0.64660        2.50680
C          5.26610       -1.55210        2.75780
C          4.54100       -2.11450        1.64810
C          4.92200       -2.06750        4.00750
C          5.67030       -1.76400        5.11990
C          5.29800       -2.38430        6.44450
C          6.79390       -0.95250        4.95130
C          7.15080       -0.39440        3.67830
C          8.41970        0.40370        3.68210
C          7.77340       -0.03240        0.64260
C          7.77280        0.25520       -0.67310
N          6.51670        0.32920       -1.13820
C          6.30750        0.91510       -2.47510
C          7.05020        0.62640       -3.68980
C          8.27160       -0.26740       -3.82940
C          6.69340        1.23170       -4.91500
C          5.67290        2.17360       -4.97840
C          5.19960        2.75840       -6.29310
C          5.11040        2.61920       -3.79090
C          5.44990        2.04270       -2.54510
C          5.01230        2.70920       -1.26020
H         -2.06680        0.10000       -0.50610
H         -2.89670        0.36000       -2.08420
H         -3.04460        1.61650       -0.81330
H         -2.52730        2.60910       -3.23990
H         -1.69310        4.15190       -5.25340
H         -0.13010        3.46140       -5.81780
H         -0.11440        4.90780       -4.79470
H          1.52740        3.21540       -4.04420
H          2.91870        2.75380       -2.43190
H          2.68740        1.24100       -3.35070
H          2.78830        1.26340       -1.50670
H          0.33640       -0.13580       -3.33540
H         -1.41320       -0.74220       -3.42440
H         -0.00340       -1.49690       -4.21220
H         -1.21810       -3.35460       -3.31490
H         -1.62800       -5.63800       -2.75310
H         -1.52250       -5.97740       -0.98690
H         -0.12350       -6.36780       -2.05680
H          0.72360       -5.00610        0.03440
H          2.15270       -3.90720        1.26910
H          1.66500       -2.21520        1.69280
H          2.77580       -2.62930        0.22020
H         -1.05860       -1.85070        0.71970
H         -2.19840       -1.82270        1.97260
H         -0.64990       -2.65690        2.31950
H         -1.55850       -1.11150        4.18250
H         -1.65150        0.01680        6.21770
H         -1.86710        1.78630        5.98530
H         -0.26580        1.11790        6.48150
H          0.04920        2.77660        4.31430
H          0.98170        3.83790        2.62220
H          0.47290        3.37050        0.98360
H          2.08830        2.89590        1.62610
H          2.63130        0.76890        2.52000
H          5.40740        1.89140        2.07260
H          4.29310        1.99130        3.56100
H          5.15380       -2.24100        0.73870
H          3.71610       -1.42280        1.53480
H          4.23790       -3.15320        1.89440
H          4.07870       -2.74220        4.11210
H          4.36470       -2.98690        6.36670
H          5.12590       -1.60540        7.21680
H          6.10230       -3.07160        6.77810
H          7.40490       -0.77200        5.82590
H          8.84610        0.49980        4.70520
H          8.25960        1.42200        3.28280
H          9.21660       -0.14290        3.14560
H          8.66890       -0.18110        1.18430
H          8.67600        0.46650       -1.22340
H          8.61040       -0.78320       -2.92560
H          9.11030        0.39660       -4.16380
H          8.13130       -1.02030       -4.62960
H          7.20500        0.97250       -5.83280
H          5.77510        2.38000       -7.16360
H          5.26010        3.86700       -6.27760
H          4.13360        2.47630       -6.45320
H          4.42030        3.43720       -3.84970
H          4.45330        3.65410       -1.42770
H          5.90490        2.98810       -0.67500
H          4.41000        2.07690       -0.60100
