68

P          0.96990        0.07040       -0.06430
C          0.31970       -1.40870       -0.89850
C         -1.03030       -1.76170       -1.06920
C         -1.36270       -3.01300       -1.61920
C         -0.36000       -3.91730       -1.99300
Cl        -0.77410       -5.49390       -2.64460
C          0.97850       -3.57690       -1.82070
C          1.31100       -2.33940       -1.27560
C          0.17630       -0.06610        1.56860
C         -0.15160       -1.30290        2.16900
C         -0.67220       -1.34130        3.46990
C         -0.92320       -0.15310        4.16260
Cl        -1.54850       -0.20190        5.80190
C         -0.66590        1.07510        3.54990
C         -0.11390        1.11780        2.26540
C          0.41000        1.40720       -1.15360
C         -0.97230        1.63480       -1.30500
C         -1.44810        2.76120       -1.97890
C         -0.55040        3.68830       -2.50180
Cl        -1.15050        5.12540       -3.31420
C          0.82530        3.49290       -2.33990
C          1.30450        2.36190       -1.66060
Ni         3.42990        0.07040       -0.06430
Br         3.42990        0.02150       -2.65390
C          3.42990        0.11100        2.08530
C          2.75400       -0.61240        2.96310
C          5.57990        0.07040       -0.06430
N          6.41140        0.58400       -1.04420
C          6.17610        1.41350       -2.25250
C          6.92010        2.75810       -2.15580
C          6.61410        0.67300       -3.52950
C          7.67760        0.36310       -0.64020
C          7.65210       -0.25000        0.56670
N          6.37240       -0.45090        0.93980
C          6.08850       -1.29550        2.12110
C          6.75440       -2.67200        1.94180
C          6.57010       -0.62060        3.41900
H         -1.83030       -1.12230       -0.74860
H         -2.39970       -3.29350       -1.73550
H          1.76290       -4.27570       -2.08650
H          2.36040       -2.12320       -1.11670
H          0.05930       -2.23830        1.66800
H         -0.86110       -2.29400        3.94930
H         -0.87410        1.99790        4.07690
H          0.09670        2.08000        1.81700
H         -1.69940        0.98080       -0.85860
H         -2.51520        2.92530       -2.06450
H          1.52200        4.23270       -2.71310
H          2.36530        2.27110       -1.49150
H          4.17070        0.78490        2.49240
H          2.13280       -1.40920        2.63960
H          2.92010       -0.46450        4.02680
H          5.13630        1.73800       -2.29750
H          8.02140        2.62300       -2.13800
H          6.61170        3.29660       -1.23630
H          6.67650        3.39340       -3.03370
H          7.70190        0.45120       -3.50470
H          6.40610        1.29810       -4.42480
H          6.07290       -0.28790       -3.64180
H          8.57390        0.65160       -1.16640
H          8.53140       -0.55470        1.11260
H          5.03720       -1.56620        2.19850
H          7.85670       -2.60200        1.84270
H          6.35090       -3.15710        1.02640
H          6.52960       -3.33090        2.80840
H          7.63570       -0.32160        3.34690
H          6.45730       -1.31640        4.27850
H          5.97730        0.28580        3.64010
