81

P          0.94320        0.04940       -0.06590
C          0.30240       -1.48750       -0.80010
C         -1.04450       -1.85600       -0.92820
C         -1.37460       -3.09310       -1.51430
C         -0.37170       -3.95770       -1.97530
Cl        -0.78420       -5.50880       -2.69480
C          0.96330       -3.58710       -1.87010
C          1.29110       -2.36030       -1.30050
C          0.46150       -0.28750        1.67290
C         -0.22840       -1.42510        2.15830
C         -0.72480       -1.45330        3.46460
C         -0.54460       -0.35890        4.31690
Cl        -1.22460       -0.36470        5.93620
C          0.16490        0.75210        3.87060
C          0.67350        0.77830        2.57160
C          0.12650        1.42730       -0.94000
C         -0.20690        2.58960       -0.20580
C         -0.85520        3.66760       -0.81050
C         -1.20680        3.59950       -2.15570
Cl        -2.04820        4.95290       -2.90260
C         -0.89450        2.45740       -2.90090
C         -0.22610        1.37010       -2.29530
Ni         3.40320        0.04940       -0.06590
Br         3.40320       -2.18270        1.24790
C          3.40320        1.90230       -1.15640
C          4.28460        2.60290       -1.87220
P          5.86320        0.04940       -0.06590
C          6.99170        0.63590       -1.39840
C          7.83880        1.76800       -1.39840
C          8.58520        2.09320       -2.54550
C          8.51090        1.30810       -3.70390
C          7.67690        0.19800       -3.71830
C          6.91590       -0.11810       -2.59140
C          6.17860        1.52140        1.07330
C          6.90990        1.26130        2.25640
C          7.31480        2.27710        3.12960
C          6.97150        3.59700        2.87920
C          6.19960        3.89430        1.76680
C          5.80780        2.87940        0.88380
C          6.71880       -1.56650        0.54820
C          6.49990       -2.96090       -0.14800
C          7.45700       -3.32200       -1.31450
C          8.92780       -3.12790       -0.93040
C          9.15500       -1.71110       -0.41240
C          8.26350       -1.45070        0.81170
H         -1.82560       -1.20190       -0.57440
H         -2.40930       -3.38860       -1.60940
H          1.75060       -4.24450       -2.22640
H          2.33760       -2.09610       -1.24710
H         -0.43920       -2.27750        1.53010
H         -1.28080       -2.31270        3.81580
H          0.30160        1.61060        4.51900
H          1.19790        1.66960        2.26170
H          0.03350        2.70250        0.83010
H         -1.09890        4.54950       -0.22490
H         -1.16560        2.40820       -3.94180
H          0.00280        0.49330       -2.88090
H          2.42160        2.33750       -1.19670
H          5.30980        2.34180       -2.00470
H          3.94430        3.52630       -2.34120
H          7.92860        2.42000       -0.55350
H          9.20790        2.97620       -2.55870
H          9.09480        1.56190       -4.57740
H          7.61040       -0.41900       -4.61190
H          6.24170       -0.96220       -2.65780
H          7.19040        0.26860        2.53540
H          7.90730        2.03670        4.00150
H          7.29360        4.38620        3.54570
H          5.91530        4.92320        1.57430
H          5.25400        3.25280        0.08130
H          6.23590       -1.66920        1.54220
H          5.44710       -3.13560       -0.43780
H          6.74110       -3.72470        0.63020
H          7.24590       -2.73220       -2.21080
H          7.31520       -4.38950       -1.60020
H          9.58310       -3.32020       -1.80990
H          9.21490       -3.85170       -0.13510
H          8.97390       -0.97480       -1.21000
H         10.22170       -1.61040       -0.11490
H          8.57420       -0.48380        1.22830
H          8.53770       -2.22930        1.56200
