90

P          1.04300        0.06190       -0.06570
C          0.25110       -1.42090       -0.82150
C         -1.03240       -2.00870       -0.68110
C         -1.27350       -3.28720       -1.25150
C         -0.26780       -3.96260       -1.96370
F         -0.46150       -5.21860       -2.44630
C          0.94320       -3.33120       -2.18430
C          1.15270       -2.06870       -1.65020
C          0.68230       -0.27880        1.70430
C          0.04730       -1.43390        2.21040
C         -0.33320       -1.51210        3.55570
C         -0.07670       -0.45430        4.42680
F         -0.46550       -0.53180        5.72450
C          0.56740        0.68770        3.95530
C          0.93850        0.77650        2.60770
C          0.09850        1.32650       -0.94140
C         -0.73910        2.16360       -0.18570
C         -1.39430        3.24160       -0.78310
C         -1.22030        3.49680       -2.14380
F         -1.82130        4.57320       -2.70940
C         -0.41430        2.65190       -2.91560
C          0.23490        1.55630       -2.32310
Ni         3.50300        0.06190       -0.06570
Br         3.50300       -2.05300        1.42940
C          3.50300        1.81750       -1.30680
C          2.69110        2.86080       -1.45740
C          5.65300        0.06190       -0.06570
N          6.46250       -1.00880        0.04160
C          6.23960       -2.49890        0.02000
C          5.19530       -3.15990       -0.70690
C          4.24210       -2.49890       -1.57130
C          4.95210       -4.56590       -0.63390
C          5.76630       -5.40470        0.09270
C          5.46880       -6.88170        0.22170
C          6.88020       -4.85090        0.68670
C          7.14890       -3.45340        0.65090
C          8.43910       -3.09030        1.31230
C          7.82130       -0.52870        0.01130
C          7.75050        0.85610       -0.55780
N          6.39130        1.28820       -0.29980
C          6.09110        2.70560        0.02710
C          6.83660        3.77530       -0.60700
C          7.84200        3.61960       -1.72020
C          6.64480        5.12370       -0.27070
C          5.70430        5.52140        0.65290
C          5.51460        6.99570        0.93580
C          4.95040        4.54240        1.29450
C          5.12550        3.15060        1.02500
C          4.27690        2.23600        1.87000
H         -1.80670       -1.53600       -0.09950
H         -2.22510       -3.78080       -1.12180
H          1.72970       -3.81960       -2.75050
H          2.05010       -1.53230       -1.86080
H         -0.19700       -2.27610        1.59750
H         -0.84770       -2.39220        3.91860
H          0.75500        1.51500        4.63040
H          1.39300        1.69660        2.26560
H         -0.86420        2.00580        0.87640
H         -2.01650        3.89290       -0.18190
H         -0.27310        2.86380       -3.96770
H          0.88530        0.93460       -2.92450
H          4.41840        1.89320       -1.88250
H          1.80300        3.02310       -0.88590
H          2.97910        3.63990       -2.16110
H          4.35360       -1.41120       -1.63740
H          3.32480       -2.81860       -1.07980
H          4.24860       -2.93120       -2.60020
H          4.10590       -5.01390       -1.14890
H          4.50290       -7.16250       -0.25580
H          5.38880       -7.15020        1.29880
H          6.27410       -7.49210       -0.23610
H          7.55130       -5.54190        1.19100
H          8.93960       -3.96220        1.79400
H          8.27020       -2.34900        2.10840
H          9.16230       -2.76190        0.53970
H          8.47550       -1.12120       -0.67130
H          8.19770       -0.46960        1.04690
H          7.84870        0.73050       -1.64680
H          8.52630        1.51500       -0.10710
H          7.77970        2.67590       -2.26160
H          8.86820        3.83050       -1.34640
H          7.60660        4.35220       -2.52180
H          7.23260        5.89140       -0.76780
H          6.22170        7.62350        0.34630
H          5.68400        7.22870        2.00830
H          4.48930        7.30720        0.65120
H          4.22990        4.87840        2.03510
H          3.63290        2.80530        2.57820
H          4.91290        1.56210        2.47530
H          3.57700        1.66790        1.25800
