66

P          0.92780       -0.05170       -0.04590
C          0.17120       -0.24510        1.65230
C         -1.35540       -0.31650        1.82660
C          0.78010       -1.50980        2.28530
C          0.52290        1.64940       -0.67070
C          1.06570        1.79240       -2.09610
C         -0.99270        1.91320       -0.73870
C          0.16270       -1.48930       -0.87570
Ni         3.38780       -0.05170       -0.04590
Br         3.38780        2.02540        1.50130
C          3.38780       -1.77580       -1.33040
C          2.86450       -1.83550       -2.55400
P          5.84780       -0.05170       -0.04590
C          6.79220       -0.27190        1.47690
C          6.01850       -0.43930        2.63950
C          6.60520       -0.81950        3.84260
C          7.98150       -1.03640        3.90020
C          8.76480       -0.86400        2.75180
C          8.17730       -0.46840        1.53350
C          6.25240       -1.52730       -1.05230
C          5.92640       -1.50700       -2.42140
C          6.12260       -2.63810       -3.22810
C          6.67990       -3.78630       -2.68590
C          7.06440       -3.80750       -1.33980
C          6.85030       -2.68820       -0.52730
C          6.41530        1.62440       -0.51120
C          6.20860        2.81410        0.20390
C          6.58110        4.04240       -0.37520
C          7.19390        4.08090       -1.62620
C          7.44030        2.89340       -2.29190
O          7.99420        2.89620       -3.38010
N          7.05240        1.70140       -1.72350
H          0.54220        0.61320        2.25360
H         -1.80230       -1.16750        1.28020
H         -1.88200        0.60590        1.57140
H         -1.57860       -0.45920        2.90790
H          0.42740       -2.42950        1.77530
H          0.49450       -1.59290        3.35530
H          1.89020       -1.47900        2.23400
H          0.98840        2.42670       -0.03380
H          0.58500        1.05350       -2.77570
H          2.16350        1.64930       -2.11660
H          0.84030        2.81000       -2.48710
H         -1.52440        1.09470       -1.27480
H         -1.20920        2.86450       -1.26890
H         -1.41710        2.06810        0.25900
H         -0.94070       -1.39380       -0.79140
H          0.48220       -2.45750       -0.45310
H          0.36850       -1.45600       -1.95970
H          3.79650       -2.68640       -0.90320
H          2.40980       -0.97300       -3.02120
H          2.89080       -2.78380       -3.08710
H          4.93880       -0.33110        2.60280
H          5.98800       -0.97370        4.72170
H          8.42780       -1.36840        4.83020
H          9.82600       -1.06520        2.80540
H          8.78480       -0.39720        0.64550
H          5.45930       -0.63270       -2.86050
H          5.80920       -2.62000       -4.26190
H          6.82070       -4.66510       -3.30720
H          7.50430       -4.70610       -0.93060
H          7.12990       -2.75590        0.51680
H          5.76280        2.83420        1.16770
H          6.38340        4.96480        0.15010
H          7.47170        5.03150       -2.06950
H          7.23510        0.83000       -2.26750
