81

P          1.07600       -0.02330        0.06070
C          0.10580       -1.56070       -0.06120
C         -1.27900       -1.58030        0.12740
C         -1.95240       -2.79120        0.29570
C         -1.25600       -4.01560        0.28290
O         -1.87720       -5.19770        0.55100
C         -3.18700       -5.31520        0.98140
C          0.12320       -4.00680        0.03700
C          0.80240       -2.78850       -0.12970
C          0.46530        0.26070        1.73010
C          0.82350       -0.58460        2.79650
C          0.28030       -0.37920        4.06990
C         -0.64480        0.66240        4.28830
O         -1.24870        0.86310        5.48940
C         -1.11470        0.05290        6.59820
C         -0.98150        1.50940        3.22520
C         -0.43260        1.31160        1.95550
C          0.53240        0.90690       -1.40100
C         -0.46290        0.46430       -2.28770
C         -0.87360        1.26770       -3.35270
C         -0.29490        2.53260       -3.56280
O         -0.61030        3.29970       -4.64050
C         -1.34850        2.86130       -5.72310
C          0.65350        3.00290       -2.64860
C          1.05750        2.20110       -1.57310
Ni         3.53600       -0.02330        0.06070
Br         3.38540       -0.89240       -2.26310
C          3.78220        0.70130        2.02530
C          2.95930        1.42140        2.82440
P          5.99600       -0.02330        0.06070
N          7.20770        0.85290        1.10860
C          8.63260        1.04460        0.79940
C          6.63480        2.12860        1.62120
N          6.42270       -1.61320        0.73590
C          5.92460       -1.87880        2.08680
C          6.04810       -2.68250       -0.19070
N          6.32800        0.29430       -1.66810
C          5.81180        1.60700       -2.08030
C          7.73180        0.15180       -2.07940
H         -1.83030       -0.65710        0.21270
H         -3.01330       -2.75820        0.48480
H         -3.42520       -6.37640        1.19870
H         -3.88100       -4.94480        0.19870
H         -3.33610       -4.73190        1.91870
H          0.68030       -4.94010        0.03040
H          1.88070       -2.81170       -0.24460
H          1.52210       -1.39890        2.64550
H          0.57310       -1.04250        4.87240
H         -1.78250        0.42080        7.40410
H         -0.06670        0.06900        6.96310
H         -1.41510       -0.98840        6.34840
H         -1.68870        2.31510        3.37530
H         -0.72020        1.96500        1.14270
H         -0.95130       -0.48700       -2.17570
H         -1.64180        0.89030       -4.01160
H         -1.36970        3.64590       -6.50580
H         -2.38950        2.62680       -5.41750
H         -0.87240        1.95360       -6.15860
H          1.09130        3.98690       -2.77640
H          1.78760        2.59260       -0.87450
H          4.71680        0.50700        2.46320
H          2.02970        1.83580        2.51120
H          3.30360        1.71550        3.81010
H          9.15110        0.08860        0.61730
H          9.13310        1.48870        1.69540
H          8.80150        1.83510        0.04080
H          6.10750        1.96350        2.57460
H          5.96720        2.63120        0.88770
H          7.39730        2.86810        1.95000
H          6.23260       -1.07850        2.78840
H          6.39950       -2.81070        2.46920
H          4.82320       -2.02040        2.09120
H          6.55860       -2.53640       -1.16590
H          4.94970       -2.70850       -0.34310
H          6.38780       -3.66570        0.20240
H          4.73990        1.71270       -1.81330
H          5.88100        1.70420       -3.18760
H          6.38950        2.43690       -1.61850
H          8.16730       -0.80240       -1.72410
H          8.34700        1.00470       -1.76530
H          7.80230        0.18240       -3.18700
