90

P          0.97070       -0.06390       -0.07110
C          0.36570       -0.33720       -1.78610
C         -0.96650       -0.47590       -2.22780
C         -1.23090       -0.65430       -3.59920
C         -0.18280       -0.68190       -4.54510
F         -0.43400       -0.84230       -5.87150
C          1.12450       -0.54790       -4.11410
C          1.38450       -0.38390       -2.76280
C          0.68260       -1.74610        0.59010
C          0.05570       -2.80910       -0.09830
C         -0.11850       -4.05140        0.52250
C          0.32720       -4.25710        1.82950
F          0.15970       -5.46760        2.42500
C          0.94130       -3.21630        2.52340
C          1.12000       -1.97590        1.91070
C          0.09700        1.38880        0.54290
C         -0.25550        1.39320        1.90420
C         -0.84040        2.51540        2.48660
C         -1.08720        3.64870        1.70940
F         -1.64170        4.74730        2.28180
C         -0.74960        3.65570        0.35020
C         -0.15150        2.52870       -0.23560
Ni         3.43070       -0.06390       -0.07110
Br         3.14670       -2.45250       -0.90700
C          3.17620        1.89910        0.77090
C          4.06790        2.85160        0.94980
P          5.89070       -0.06390       -0.07110
C          7.06280        0.38530        1.41420
C          8.63200        0.33850        1.47530
C          9.39110        1.67710        1.23530
C          8.78710        2.84030        2.02950
C          7.27380        2.90930        1.83130
C          6.63320        1.57830        2.29650
C          6.23070       -1.74810       -0.81350
C          5.68020       -1.77100       -2.28220
C          6.61050       -1.16520       -3.33120
C          7.93750       -1.90430       -3.33410
C          8.58900       -1.83310       -1.94470
C          7.64990       -2.38030       -0.85370
C          6.16660        1.43500       -1.19810
C          5.20400        2.22270       -1.96240
C          3.73250        2.03200       -2.07210
C          5.62970        3.25790       -2.81340
C          6.96890        3.51630       -3.00950
C          7.90930        2.72680       -2.37410
C          7.50330        1.71030       -1.50400
H         -1.78010       -0.45960       -1.52150
H         -2.23980       -0.77140       -3.96150
H          1.95110       -0.57080       -4.82280
H          2.41250       -0.30940       -2.49400
H         -0.30280       -2.70960       -1.10690
H         -0.59030       -4.86240       -0.01510
H          1.29200       -3.37520        3.53890
H          1.60380       -1.18650        2.47290
H         -0.05270        0.53570        2.53100
H         -1.08830        2.51250        3.53890
H         -0.93920        4.54120       -0.23920
H          0.12740        2.55490       -1.27970
H          2.21510        2.21440        1.09480
H          5.05120        2.71110        0.61950
H          3.79110        3.80160        1.39670
H          6.77920       -0.49690        2.03310
H          9.06660       -0.50550        0.91460
H          8.86390        0.12490        2.54880
H          9.43390        1.98770        0.19250
H         10.45690        1.55950        1.52670
H          9.25770        3.79600        1.70470
H          8.99240        2.70810        3.11220
H          7.07530        3.13320        0.76740
H          6.87240        3.74650        2.44210
H          5.54070        1.58250        2.41630
H          6.98720        1.41840        3.34120
H          5.66920       -2.41630       -0.13200
H          4.74350       -1.19480       -2.38530
H          5.50500       -2.83070       -2.57750
H          6.77490       -0.09550       -3.14610
H          6.13010       -1.24500       -4.33130
H          8.60740       -1.45170       -4.09430
H          7.75500       -2.96490       -3.61890
H          8.87130       -0.80100       -1.71810
H          9.52320       -2.43500       -1.96580
H          8.12420       -2.36850        0.14520
H          7.50120       -3.45690       -1.10830
H          3.43380        1.17300       -1.55350
H          3.44920        1.84070       -3.13020
H          3.16950        2.92060       -1.71240
H          4.90790        3.84590       -3.37450
H          7.26660        4.29820       -3.69690
H          8.95800        2.88890       -2.57760
H          8.24180        1.08110       -1.09270
