67

P          1.08280       -0.05600        0.00300
C          0.22140        0.73490        1.56930
C         -1.31930        0.77750        1.56120
C          0.65080       -0.03330        2.84230
C          0.68430        2.18690        1.87160
C          0.70430        1.11350       -1.57750
C          1.26280        2.56490       -1.61640
C          1.28210        0.56950       -2.91940
C         -0.81670        1.25740       -1.79460
C          0.33580       -1.82890        0.09080
C          0.36450       -3.01640       -1.00540
C          1.74490       -3.54420       -1.39970
C         -0.40190       -4.22830       -0.42350
C         -0.34730       -2.67190       -2.31480
Ni         3.54280       -0.05600        0.00300
Br         3.52280        2.38290        0.33890
C          3.47370       -2.04900        0.44540
C          3.09250       -2.51330        1.63510
C          5.69280       -0.05600        0.00300
N          6.46400       -1.11840       -0.14280
C          6.15640       -2.51340       -0.36990
C          7.87590       -0.80380       -0.15840
C          7.95260        0.67690       -0.15010
N          6.59550        1.08770        0.08720
C          6.41640        2.50400        0.34750
H         -1.77650       -0.21800        1.46830
H         -1.73000        1.45700        0.81570
H         -1.68080        1.21590        2.52060
H          0.32320       -1.08450        2.84740
H          0.20800        0.43760        3.75520
H          1.75240        0.02510        2.98580
H          0.40070        2.91100        1.10580
H          1.75570        2.23510        2.11780
H          0.21720        2.59010        2.79590
H          2.34350        2.57910       -1.84960
H          1.01350        3.21060       -0.77810
H          0.85630        3.12410       -2.48990
H          2.37370        0.38910       -2.87360
H          1.11100        1.29860       -3.75110
H          0.76400       -0.25510       -3.36270
H         -1.26200        1.94760       -1.06830
H         -1.33080        0.27630       -1.79840
H         -1.04190        1.75530       -2.76740
H         -0.74760       -1.64750        0.20710
H          0.66340       -2.27190        1.04300
H          2.20870       -4.06300       -0.53650
H          2.34910       -2.71920       -1.83950
H          1.69190       -4.32760       -2.18450
H          0.07570       -4.58940        0.51110
H         -0.39250       -5.07980       -1.14620
H         -1.46040       -3.97280       -0.21700
H          0.29160       -2.03530       -2.88810
H         -1.35140       -2.24270       -2.16370
H         -0.42370       -3.56320       -2.97660
H          3.76760       -2.75020       -0.28710
H          2.78140       -1.84610        2.42130
H          3.07170       -3.58390        1.81780
H          5.57090       -2.62160       -1.30590
H          5.74560       -2.97930        0.54710
H          7.07850       -3.10720       -0.55620
H          8.40290       -1.19830       -1.04790
H          8.32720       -1.24000        0.77180
H          8.25870        1.06810       -1.13800
H          8.66260        1.01830        0.64190
H          7.39990        3.02820        0.39370
H          5.97570        2.64510        1.35390
H          5.87170        2.99950       -0.49560
