50

P          1.02160       -0.08510        0.04800
C         -0.38740       -1.19430        0.40290
C          0.83320        0.86180        1.59410
C          0.37660        0.72040       -1.42020
C         -0.56260        1.76230       -1.31950
C         -1.13540        2.30620       -2.47890
C         -0.77170        1.81160       -3.73190
C          0.15530        0.77630       -3.83510
C          0.72920        0.22470       -2.68260
Ni         3.48160       -0.08510        0.04800
Br         3.48160        2.31770       -0.91890
C          3.48160       -2.07960        0.85060
C          2.49680       -2.93860        0.60030
C          5.63160       -0.08510        0.04800
N          6.47320       -1.10240        0.09880
C          6.28670       -2.55270       -0.00040
C          6.75870       -3.28820        1.26460
C          7.84320       -0.65100        0.07880
C          7.74300        0.75620       -0.42650
N          6.38670        1.13780       -0.11310
C          6.19170        2.37800        0.64020
C          5.40870        2.20230        1.93730
H         -1.36160       -0.68450        0.47380
H         -0.16410       -1.71820        1.36290
H         -0.42980       -1.98410       -0.37900
H         -0.24130        1.08490        1.77560
H          1.37850        1.82250        1.51640
H          1.22380        0.27280        2.44840
H         -0.86230        2.13470       -0.36170
H         -1.86260        3.10460       -2.39500
H         -1.22050        2.22950       -4.62500
H          0.41800        0.38240       -4.81180
H          1.42120       -0.59870       -2.77390
H          4.30600       -2.47040        1.39440
H          1.69960       -2.67510       -0.06910
H          2.55540       -3.96420        0.94650
H          6.90850       -2.93140       -0.83980
H          5.30320       -2.85110       -0.37650
H          7.84050       -3.10760        1.43780
H          6.60980       -4.38360        1.14070
H          6.22300       -2.95990        2.17830
H          8.50340       -1.24000       -0.59860
H          8.22610       -0.69000        1.12150
H          7.82460        0.75910       -1.53660
H          8.55080        1.39320       -0.00540
H          5.75890        3.15950       -0.01140
H          7.17410        2.80900        0.93710
H          4.38880        1.81660        1.74980
H          5.32640        3.18640        2.44670
H          5.95330        1.50440        2.60620
