88

P          1.01230        0.07350        0.06670
C         -0.11960       -0.73090        1.29310
C          0.43860       -1.73150        2.11650
C         -0.21640       -2.30790        3.20210
C          0.51300       -3.27770        4.11540
C         -1.53470       -1.93500        3.43920
C         -2.15750       -0.99340        2.59870
C         -1.45080       -0.37850        1.53610
C          0.81650        1.77260        0.63880
C          1.36980        2.14380        1.86920
C          1.23170        3.45570        2.34750
C          1.82670        3.85270        3.66360
C          0.52980        4.40030        1.58530
C         -0.03030        4.03510        0.36040
C          0.10850        2.72750       -0.11160
C          0.34120       -0.50100       -1.51120
C         -0.10960       -1.83960       -1.58950
C         -0.68990       -2.34080       -2.76450
C         -1.18640       -3.75690       -2.82840
C         -0.81540       -1.50300       -3.87770
C         -0.35430       -0.18530       -3.82020
C          0.22660        0.31240       -2.64860
Ni         3.47230        0.07350        0.06670
Br         3.47230        1.49790       -2.09640
C          3.47230       -1.10890        1.86240
C          3.82050       -2.39430        1.88350
P          5.93230        0.07350        0.06670
C          6.60030       -1.21820       -1.01100
C          5.62050       -1.98650       -1.66660
C          5.97430       -3.08150       -2.44890
C          7.31640       -3.42310       -2.59600
C          8.30390       -2.66920       -1.95250
C          7.95220       -1.57290       -1.15000
C          6.61780        1.63150       -0.63610
C          5.80680        2.77960       -0.74290
C          6.30110        3.99980       -1.20590
C          7.65340        4.13370       -1.49200
C          8.50710        3.05070       -1.28890
C          7.99750        1.81400       -0.86310
C          6.32520       -0.62120        1.72530
C          6.32020        0.22020        2.88170
O          6.23720        1.57880        2.76250
C          6.43770        2.47330        3.80690
C          6.42100       -0.36740        4.16550
C          6.52890       -1.74310        4.32260
C          6.61040       -2.55900        3.20210
C          6.54040       -2.00600        1.91510
H          1.40080       -2.08230        1.93340
H          1.57520       -3.42130        3.81470
H          0.02570       -4.27130        4.13250
H          0.53800       -2.87010        5.15040
H         -2.06820       -2.37110        4.27470
H         -3.18230       -0.72030        2.79860
H         -1.93510        0.37570        0.93490
H          1.90760        1.41100        2.45390
H          2.34710        2.99870        4.14700
H          1.02380        4.20580        4.34390
H          2.56170        4.66980        3.50790
H          0.41350        5.41680        1.94100
H         -0.57660        4.76670       -0.22290
H         -0.35160        2.47910       -1.05250
H         -0.02700       -2.48580       -0.72650
H         -1.01830       -4.29610       -1.87130
H         -0.65360       -4.30370       -3.63380
H         -2.27620       -3.76620       -3.04370
H         -1.26780       -1.87190       -4.78940
H         -0.45190        0.45570       -4.68580
H          0.57340        1.33340       -2.63720
H          3.01630       -0.68990        2.75360
H          4.17630       -2.88940        0.98920
H          3.72500       -2.95820        2.80720
H          4.56890       -1.75030       -1.54590
H          5.20270       -3.67190       -2.92710
H          7.58770       -4.28040       -3.19790
H          9.34280       -2.94900       -2.06310
H          8.73560       -1.05150       -0.63250
H          4.78250        2.76810       -0.42830
H          5.63620        4.84920       -1.31270
H          8.04090        5.08790       -1.82740
H          9.56970        3.17720       -1.44740
H          8.70430        1.03220       -0.68350
H          6.44540        3.51400        3.42980
H          7.42960        2.29190        4.29040
H          5.63900        2.37520        4.57500
H          6.39420        0.23340        5.06960
H          6.55400       -2.17500        5.31710
H          6.68970       -3.62990        3.33080
H          6.54850       -2.69510        1.08500
