92

P          0.97850        0.08930       -0.03950
C         -0.34180       -1.16180        0.37310
C          0.31610        1.21980        1.24960
C          0.09750        0.23550       -1.61980
C         -0.60080        1.44380       -1.81480
C         -1.52790        1.58130       -2.84630
C         -1.78530        0.50860       -3.69340
C         -1.07670       -0.69050       -3.53840
C         -0.13140       -0.83050       -2.51320
Ni         3.43850        0.08930       -0.03950
Br         3.43850       -1.84170       -1.76560
C          3.43850        1.69230        1.39330
C          4.36620        2.49530        1.91900
C          5.58850        0.08930       -0.03950
N          6.50500        1.16610       -0.03510
C          6.52000        2.76010       -0.40280
C          7.75130        3.52660       -0.11160
C          8.96870        2.82780        0.16480
C          9.25980        2.08430       -1.22170
C          9.99430        2.90150        1.32350
C          8.01400        4.88280       -0.31790
C          7.09590        5.67100       -0.90350
C          5.94730        5.08150       -1.35090
C          5.60270        3.66810       -1.12780
C          4.26700        3.38060       -1.79640
C          3.15880        4.30860       -1.19600
C          4.34590        3.64650       -3.33090
C          7.59040        0.48240        0.43010
C          7.41110       -0.83610        0.52830
N          6.19740       -1.22300        0.18980
C          5.99480       -2.79450        0.38530
C          4.72910       -3.55600        0.74000
C          3.33930       -3.11130        1.21390
C          3.39920       -1.71730        1.69610
C          2.18750       -3.57320        0.26470
C          4.65170       -4.96670        0.78030
C          5.70520       -5.75640        0.60850
C          6.91460       -5.19200        0.40400
C          7.15550       -3.79570        0.27660
C          8.69180       -3.58980       -0.04970
C          9.69570       -4.75150        0.27300
C          8.80180       -3.25180       -1.52450
H         -1.36640       -0.74380        0.40910
H         -0.10640       -1.56100        1.38640
H         -0.40220       -2.04300       -0.29180
H         -0.79450        1.24090        1.20830
H          0.60340        2.27130        1.05930
H          0.59280        0.86320        2.26440
H         -0.47340        2.27730       -1.13430
H         -2.08070        2.50990       -2.95350
H         -2.54070        0.60380       -4.46270
H         -1.30270       -1.52660       -4.18390
H          0.35490       -1.78690       -2.37420
H          2.50080        1.92490        1.81270
H          5.40280        2.49660        1.69840
H          4.04100        3.24930        2.63770
H          8.28530        2.58690        0.99760
H          9.94220        2.65360       -1.87580
H          8.34900        2.02040       -1.90350
H          9.55210        1.01950       -1.18200
H         10.97270        2.56390        0.97270
H          9.76090        2.19870        2.18800
H          9.98220        3.91490        1.76040
H          8.96350        5.31970       -0.08390
H          7.32010        6.69990       -1.11830
H          5.32190        5.78140       -1.88680
H          4.01030        2.31860       -1.62390
H          3.33360        5.38830       -1.40410
H          3.13450        4.21330       -0.09410
H          2.16220        4.09760       -1.62960
H          4.45490        4.72690       -3.58670
H          3.42870        3.30750       -3.85060
H          5.22290        3.13240       -3.78080
H          8.57070        0.69200        0.71160
H          8.16740       -1.37990        0.94930
H          3.07050       -3.59750        2.17420
H          3.97190       -1.34910        0.93540
H          4.08320       -1.56740        2.54800
H          2.42010       -1.24540        1.85720
H          2.49720       -3.92310       -0.74360
H          1.48060       -2.77670        0.13120
H          1.66390       -4.47780        0.63560
H          3.73310       -5.50590        0.99130
H          5.58790       -6.83450        0.65890
H          7.64760       -5.96770        0.32580
H          9.22110       -2.88650        0.59270
H          9.55890       -5.66520       -0.33800
H          9.65550       -5.00970        1.35880
H         10.73960       -4.42870        0.06610
H          8.30170       -4.05850       -2.10610
H          9.86300       -3.19690       -1.84300
H          8.30080       -2.28790       -1.73580
