79

P          1.05170       -0.05550        0.06520
C          0.25950        1.72570        0.41580
C         -1.27080        1.93270        0.36170
C          0.71570        2.20330        1.81470
C          0.81670        2.80840       -0.54070
C          0.63300       -0.56310       -1.81710
C          1.24430        0.22560       -3.00920
C          1.11130       -2.01260       -2.03840
C         -0.87190       -0.55080       -2.18230
C          0.33190       -1.07970        1.48880
C         -1.17510       -1.52310        1.86530
C         -1.93680       -2.23880        0.73500
C         -1.04800       -2.54530        3.01940
C         -2.12110       -0.42650        2.38920
Ni         3.51170       -0.05550        0.06520
Br         3.51170        1.68530       -1.85260
C          3.51170       -1.50060        1.65710
C          3.02520       -2.72670        1.86210
C          5.66170       -0.05550        0.06520
N          6.41770       -1.04010       -0.28730
C          5.91440       -2.23320       -0.97460
C          6.45700       -2.26000       -2.43710
C          6.29960       -3.51220       -0.25520
C          7.80600       -0.68850       -0.16030
C          7.78290        0.82340        0.04050
N          6.39580        1.11380        0.31840
C          5.97480        2.00550        1.41600
C          6.48130        1.48130        2.78650
C          6.47120        3.42700        1.19090
H         -1.72050        1.82040        1.34570
H         -1.81540        1.43230       -0.44060
H         -1.52870        3.00990        0.24090
H          0.33700        1.54230        2.61600
H          0.31210        3.22250        2.02970
H          1.82130        2.26350        1.89330
H          0.51000        2.66380       -1.58240
H          1.89540        2.94660       -0.40400
H          0.43050        3.82210       -0.28230
H          2.30380       -0.02190       -3.16490
H          1.02320        1.30120       -3.01510
H          0.84180       -0.11110       -3.99050
H          2.21420       -2.07750       -1.94540
H          0.84300       -2.36160       -3.06380
H          0.63810       -2.70480       -1.31620
H         -1.32840        0.44690       -2.13840
H         -1.42990       -1.33110       -1.69150
H         -1.04260       -0.85140       -3.24010
H          0.80250       -0.69810        2.41550
H          0.74720       -2.05340        1.23820
H         -1.32670       -3.02190        0.23960
H         -2.32000       -1.48970        0.03480
H         -2.87440       -2.70650        1.10720
H         -0.45890       -3.43130        2.70480
H         -2.05160       -2.91570        3.33440
H         -0.56950       -2.07950        3.90510
H         -2.61150        0.08820        1.55100
H         -1.62160        0.24730        3.11430
H         -3.01430       -0.86190        2.88590
H          4.12100       -1.11920        2.47060
H          2.42830       -3.28590        1.16150
H          3.24120       -3.18690        2.82900
H          4.81080       -2.18190       -1.05410
H          7.55420       -2.37400       -2.46910
H          6.18930       -1.30780       -2.97220
H          6.01570       -3.09810       -3.01030
H          7.39960       -3.59690       -0.18720
H          5.89600       -4.37790       -0.82180
H          5.84950       -3.49970        0.75450
H          8.40870       -0.89030       -1.09210
H          8.23230       -1.24760        0.69060
H          8.02020        1.36240       -0.91040
H          8.50810        1.14790        0.81150
H          4.86480        2.03210        1.45380
H          7.59040        1.47460        2.84150
H          6.11620        0.45210        2.98030
H          6.11950        2.13780        3.60970
H          7.58030        3.46870        1.16560
H          6.11140        4.09280        2.00530
H          6.07120        3.80850        0.22670
