61

P          1.06180        0.03370       -0.07100
C         -0.15110       -1.14840        0.61520
C          0.76490        1.27180        1.23500
C          0.34610        0.28390       -1.69720
C         -0.25160        1.50070       -2.03760
C         -0.85420        1.65820       -3.29010
C         -0.87910        0.59500       -4.19900
C         -0.30950       -0.63280       -3.85310
C          0.30310       -0.78990       -2.60560
Ni         3.52180        0.03370       -0.07100
Br         3.41650        2.07120       -1.47780
C          3.65710       -1.74780        1.11580
C          2.77520       -2.60220        1.60370
P          5.98180        0.03370       -0.07100
C          6.79920        0.06270       -1.70760
C          6.56420        1.10630       -2.61600
C          6.93960        0.98010       -3.95950
C          7.53890       -0.19450       -4.41900
C          7.80110       -1.23010       -3.52990
C          7.45010       -1.10070       -2.18850
C          6.36300        1.71670        0.50630
C          5.54930        2.25180        1.52550
C          5.88410        3.45560        2.15860
C          7.04850        4.13330        1.79860
C          7.88620        3.59970        0.81640
C          7.55730        2.39140        0.18270
C          6.57300       -1.52620        0.68550
C          7.29090       -1.51240        1.89370
C          7.61670       -2.72420        2.51980
C          7.23350       -3.93760        1.94770
C          6.52840       -3.92960        0.74470
O          6.16850       -4.98140        0.24420
N          6.21560       -2.73480        0.13990
H         -1.20060       -0.82740        0.56260
H          0.10480       -1.31110        1.68960
H         -0.01760       -2.12400        0.09500
H         -0.33560        1.38950        1.36910
H          1.18700        2.25520        0.96220
H          1.18870        0.91790        2.19820
H         -0.25620        2.32110       -1.33360
H         -1.30910        2.60310       -3.55280
H         -1.34830        0.71950       -5.16650
H         -0.34920       -1.46280       -4.54870
H          0.72130       -1.75510       -2.34300
H          4.57430       -1.96120        1.59660
H          1.74710       -2.62870        1.35450
H          3.13110       -3.39490        2.27070
H          6.05060        1.99990       -2.30690
H          6.72590        1.77800       -4.65590
H          7.78720       -0.31270       -5.46530
H          8.24260       -2.15550       -3.88280
H          7.64220       -1.96390       -1.58190
H          4.66610        1.72080        1.85900
H          5.25480        3.85290        2.94690
H          7.31420        5.05770        2.29930
H          8.80650        4.11280        0.56790
H          8.25570        1.97880       -0.53010
H          7.56340       -0.58020        2.36960
H          8.14840       -2.72890        3.46340
H          7.46910       -4.87460        2.44230
H          5.64830       -2.75500       -0.73810
