93

P          0.96070        0.07360       -0.05520
C          0.26510       -1.29710       -1.04570
C         -1.05630       -1.78760       -1.02260
C         -1.39010       -2.95220       -1.74110
C         -0.41160       -3.64800       -2.48150
O         -0.65720       -4.79750       -3.15880
C         -1.82300       -5.52480       -3.11410
C          0.88990       -3.16460       -2.49440
C          1.21820       -2.02540       -1.77380
C          0.70220       -0.60390        1.60330
C          1.23080       -1.86640        1.91930
C          1.24440       -2.31740        3.23920
C          0.69720       -1.52960        4.26770
O          0.77880       -1.89260        5.57690
C          1.50580       -2.96490        6.06180
C          0.08470       -0.30960        3.93640
C          0.08760        0.15550        2.61120
C          0.05050        1.49750       -0.70580
C         -1.33960        1.51380       -0.54240
C         -2.09560        2.63580       -0.85510
C         -1.47820        3.80120       -1.32290
O         -2.18300        4.93500       -1.57690
C         -3.54480        5.08080       -1.38670
C         -0.07890        3.80220       -1.49000
C          0.68560        2.65640       -1.18170
Ni         3.42070        0.07360       -0.05520
Br         3.42070        0.36980       -2.62820
C          3.42070       -0.17240        2.08070
C          3.25760        0.79730        2.97870
P          5.88070        0.07360       -0.05520
C          6.50040        1.55190        0.83000
C          7.71600        1.67570        1.53330
C          8.04550        2.88500        2.16780
C          7.17010        3.97040        2.11780
C          5.95660        3.85760        1.43860
C          5.62810        2.65010        0.81050
C          6.19610       -1.05530        1.34460
C          6.39550       -2.39590        0.96450
C          6.71920       -3.37460        1.90320
C          6.85160       -3.03100        3.24590
C          6.65340       -1.70870        3.64990
C          6.32770       -0.72090        2.71100
C          6.69290       -0.15760       -1.78690
C          6.49260        0.79760       -3.01080
C          7.02120        2.17200       -2.72730
C          8.54020        2.06330       -2.59880
C          8.94760        1.02700       -1.53910
C          8.22750       -0.32890       -1.68840
H         -1.82760       -1.33940       -0.43230
H         -2.40580       -3.31790       -1.69080
H         -1.70670       -6.42510       -3.75280
H         -2.67120       -4.91960       -3.49420
H         -2.01770       -5.85460       -2.07130
H          1.66690       -3.69460       -3.03370
H          2.25270       -1.74790       -1.76130
H          1.71630       -2.46230        1.15890
H          1.72940       -3.26000        3.45180
H          1.44560       -2.98780        7.16940
H          2.57890       -2.86360        5.77950
H          1.10200       -3.91820        5.66280
H         -0.34630        0.30650        4.71630
H         -0.33060        1.12930        2.38950
H         -1.86390        0.68420       -0.11740
H         -3.16550        2.58880       -0.68740
H         -3.84780        6.11780       -1.63280
H         -3.81660        4.88640       -0.32230
H         -4.10190        4.38060       -2.04400
H          0.42110        4.70490       -1.81970
H          1.76620        2.69620       -1.26180
H          3.69840       -1.15430        2.44850
H          3.06970        1.82170        2.69070
H          3.35900        0.54340        4.03310
H          8.40770        0.84740        1.59310
H          8.98010        2.98500        2.70300
H          7.42290        4.90810        2.60360
H          5.27370        4.69610        1.39950
H          4.67710        2.59420        0.28650
H          6.31590       -2.68920       -0.07550
H          6.87780       -4.39770        1.58410
H          7.11320       -3.79020        3.97200
H          6.76100       -1.44650        4.69370
H          6.18590        0.28590        3.07110
H          6.29550       -1.14790       -2.10600
H          5.54880        0.91180       -3.47780
H          7.03770        0.35700       -3.89330
H          6.51680        2.56600       -1.82180
H          6.77570        2.84460       -3.57880
H          8.95350        3.05800       -2.35380
H          8.93270        1.74060       -3.58490
H          8.71140        1.45590       -0.58170
H         10.04550        0.87980       -1.56840
H          8.49750       -1.03450       -0.87810
H          8.58440       -0.78980       -2.63970
