47

P          0.99810       -0.05110        0.08590
C          0.21720       -0.64820       -1.50390
C         -1.31090       -0.65630       -1.66790
C          0.81510        0.18750       -2.65230
C          0.62080       -1.28700        1.42300
C          1.19230       -0.76840        2.74490
C         -0.88680       -1.50730        1.62720
C          0.22400        1.60040        0.20170
Ni         3.45810       -0.05110        0.08590
Br         3.29660       -2.50310       -0.35990
C          3.40020        1.97270        0.58690
C          3.01520        2.94040       -0.24080
N          5.55810       -0.05110        0.08590
C          6.24940        1.13680        0.11520
C          7.65310        1.18530        0.01410
O          8.35940        2.34220       -0.06790
C          7.81990        3.60330       -0.22020
C          8.35640       -0.01610       -0.03800
C          7.66940       -1.21850       -0.04800
C          6.27220       -1.21910       -0.00770
H          0.58230       -1.68680       -1.65530
H         -1.74600        0.35410       -1.55600
H         -1.83010       -1.35880       -1.01060
H         -1.55140       -1.01640       -2.69410
H          0.46210        1.23850       -2.62040
H          0.52320       -0.23070       -3.63890
H          1.92610        0.18690       -2.60230
H          1.07700       -2.27000        1.20510
H          0.72180        0.20090        3.02210
H          2.28980       -0.63530        2.67140
H          0.98480       -1.49660        3.56050
H         -1.42580       -0.54280        1.75680
H         -1.07670       -2.13280        2.52520
H         -1.31630       -2.09060        0.80470
H         -0.87780        1.46260        0.24590
H          0.45340        2.25630       -0.65340
H          0.52100        2.08750        1.15090
H          3.69750        2.23440        1.59790
H          2.69990        2.71660       -1.25120
H          3.00690        3.96880        0.11170
H          5.73440        2.07620        0.13240
H          8.64290        4.33890       -0.32630
H          7.20800        3.87340        0.66420
H          7.19760        3.64980       -1.14200
H          9.43830       -0.01260       -0.10800
H          8.20960       -2.15440       -0.10120
H          5.79890       -2.17740       -0.02150
