42

P          0.94870        0.06190        0.05940
C         -0.32300        1.21360       -0.58230
C          0.65320       -0.96260       -1.43620
C          0.17140       -0.27490        1.64600
C         -0.37020       -1.55320        1.84510
C         -1.01290       -1.87260        3.04270
C         -1.12440       -0.91090        4.04830
C         -0.59580        0.37110        3.85520
C          0.04860        0.69400        2.65360
Ni         3.40870        0.06190        0.05940
Br         3.40870        0.14350       -2.52930
C          3.40870       -0.00580        2.20840
C          4.47420       -0.01490        3.01110
N          5.50870        0.06190        0.05940
C          6.12750       -1.09420        0.42640
C          7.53210       -1.18450        0.43010
O          8.20260       -2.33820        0.65810
C          7.63120       -3.59390        0.66800
C          8.25830       -0.01600        0.17670
C          7.60370        1.17730       -0.16340
C          6.21270        1.18010       -0.26800
H         -1.34430        0.79030       -0.57630
H         -0.04530        1.55770       -1.60430
H         -0.30290        2.12680        0.05250
H         -0.43100       -1.19850       -1.51530
H          1.18670       -1.92850       -1.33940
H          0.91090       -0.45890       -2.38180
H         -0.29850       -2.30760        1.07020
H         -1.42770       -2.86180        3.18450
H         -1.62520       -1.16110        4.97540
H         -0.68940        1.11220        4.63700
H          0.44780        1.68850        2.50980
H          2.46250       -0.03860        2.70910
H          5.48920        0.01990        2.65220
H          4.31550       -0.05580        4.08660
H          5.51950       -1.96110        0.63200
H          8.42690       -4.35750        0.77850
H          7.11360       -3.78450       -0.29870
H          6.91120       -3.68960        1.50660
H          9.34490       -0.02440        0.22710
H          8.17150        2.07830       -0.34510
H          5.68750        2.08970       -0.52270
