99

P          0.98890        0.00790        0.09910
C          0.15350       -0.11630       -1.49850
C         -1.24080       -0.15030       -1.70090
C         -1.74050       -0.42550       -2.98390
C         -0.86540       -0.64900       -4.07020
C         -1.37900       -1.02580       -5.43160
C          0.50650       -0.54510       -3.87250
C          1.01230       -0.27690       -2.60270
C          0.53760       -1.73480        0.57490
C         -0.21380       -2.64690       -0.22090
C         -0.62180       -3.88440        0.27600
C         -0.28500       -4.28110        1.56630
C         -0.74800       -5.61430        2.09210
C          0.48680       -3.42010        2.36210
C          0.88260       -2.16010        1.87250
C          0.43190        1.57010        0.79910
C          0.14400        1.65090        2.16590
C         -0.27970        2.84830        2.74270
C         -0.43650        3.99890        1.94430
C         -0.88930        5.29560        2.55530
C         -0.16650        3.91460        0.57550
C          0.26700        2.71910       -0.00260
Ni         3.44890        0.00790        0.09910
Br         3.44890       -2.26070       -1.15060
C          3.44890        1.89110        1.13640
C          3.31600        1.96500        2.46000
P          5.90890        0.00790        0.09910
C          7.06290       -0.21700        1.66170
C          8.61060       -0.17910        1.50560
C          9.02780        1.21360        1.06920
C          8.63290        2.22030        2.16300
C          7.17940        2.04110        2.62560
C          6.74930        0.63530        2.91010
C          6.86680       -1.48140       -0.84780
C          6.91640       -2.95490       -0.26800
C          5.85630       -3.92910       -0.81210
C          5.67070       -3.82100       -2.37680
C          5.78650       -2.39610       -3.01830
C          6.96870       -1.68840       -2.41220
C          6.11570        1.83940       -0.61910
C          6.07270        3.30150       -0.25160
C          5.67690        4.09760        0.99510
C          6.48820        4.27840       -1.21970
C          6.79160        3.96740       -2.50910
C          6.68590        2.67360       -2.91670
C          6.35600        1.67080       -2.00370
H         -1.91380       -0.03050       -0.86620
H         -2.81660       -0.49850       -3.13130
H         -2.48160       -1.10260       -5.44630
H         -0.96250       -2.02230       -5.70830
H         -1.05040       -0.28440       -6.18400
H          1.20160       -0.70400       -4.69340
H          2.08340       -0.23320       -2.47920
H         -0.54060       -2.45020       -1.22070
H         -1.22220       -4.53040       -0.35880
H         -1.37340       -6.15270        1.34380
H         -1.36520       -5.47170        3.00450
H          0.12540       -6.25140        2.33370
H          0.75490       -3.71350        3.36670
H          1.44660       -1.50630        2.52550
H          0.26590        0.77870        2.79920
H         -0.48520        2.88720        3.80150
H         -1.05640        5.20000        3.64990
H         -1.83620        5.62990        2.08490
H         -0.11040        6.07160        2.39090
H         -0.28940        4.79660       -0.05310
H          0.47210        2.68380       -1.06180
H          3.48730        2.78920        0.53600
H          3.25650        1.06640        3.06050
H          3.28490        2.93560        2.94710
H          6.81820       -1.23780        2.01910
H          9.03150       -0.96030        0.86040
H          9.09090       -0.40770        2.48600
H          8.54210        1.43270        0.10080
H         10.12390        1.26140        0.90340
H          8.77470        3.25070        1.76370
H          9.28740        2.08230        3.04310
H          6.58830        2.17140        1.78370
H          6.91080        2.74710        3.43970
H          5.66800        0.58110        3.15910
H          7.30740        0.27580        3.80290
H          7.88180       -1.11550       -0.73830
H          6.97870       -3.01610        0.83230
H          7.86520       -3.40570       -0.63330
H          4.98750       -3.80560       -0.16360
H          6.08630       -4.98770       -0.56380
H          4.73060       -4.32390       -2.70510
H          6.50230       -4.39870       -2.82220
H          4.95920       -1.66720       -2.96450
H          5.90070       -2.51640       -4.11710
H          7.27780       -0.82160       -3.00720
H          7.83230       -2.35960       -2.62350
H          4.90060        4.85010        0.71730
H          5.21150        3.60390        1.85800
H          6.55740        4.66060        1.38320
H          6.51630        5.33360       -0.96060
H          7.07160        4.74710       -3.20900
H          6.86600        2.42290       -3.95820
H          6.25940        0.72600       -2.42920
