80

P          1.07010        0.05130        0.04950
C          0.29780        1.02230        1.58150
C         -1.10110        1.22490        1.97120
C         -2.29910        0.76770        1.19790
C         -1.44090        1.88050        3.20930
C         -0.46660        2.35590        4.09310
C         -0.71410        2.96380        5.45960
C          0.82640        2.25740        3.71240
C          1.21940        1.67950        2.49660
C          2.66430        1.71350        2.39570
C          0.44250        0.87890       -1.64660
C         -0.38530        2.10180       -1.65450
C         -0.72580        3.02890       -0.51140
C         -0.97730        2.62600       -2.83220
C         -0.77440        2.08350       -4.07450
C         -1.41440        2.65820       -5.32040
C          0.02130        0.97740       -4.16980
C          0.62210        0.34200       -3.04670
C          1.36670       -0.88580       -3.57390
C          0.63690       -1.72020        0.63130
C         -0.25270       -2.14220        1.70390
C         -0.63070       -1.42530        2.97100
C         -0.85210       -3.41600        1.66040
C         -0.55040       -4.34260        0.67910
C         -1.26480       -5.66740        0.63330
C          0.46960       -4.04680       -0.21330
C          1.08600       -2.77990       -0.22240
C          2.31040       -2.63760       -1.08320
Ni         3.53010        0.05130        0.04950
Br         3.53010       -1.19500        2.32000
C          3.53010        1.08590       -1.83520
C          3.52230        2.41580       -1.84100
N          5.63010        0.05130        0.04950
C          5.82020        0.95420        1.21440
N          6.27580        0.53030       -1.06330
C          7.43290       -0.00690       -1.18280
C          7.60700       -0.98910       -0.21690
C          6.43270       -1.01460        0.52430
H         -2.01960        0.25890        0.26180
H         -2.94010        1.65190        0.98540
H         -2.93580        0.11060        1.82320
H         -2.47480        1.99710        3.51550
H         -1.78510        3.03170        5.72500
H         -0.24640        3.97360        5.54080
H         -0.20860        2.32520        6.22290
H          1.58060        2.66190        4.39170
H          3.14710        2.63790        2.77230
H          2.94410        1.59820        1.34500
H          3.02230        1.03060        3.18590
H         -0.10140        2.93110        0.34650
H         -1.82380        2.96130       -0.33000
H         -0.52620        4.06160       -0.82250
H         -1.60960        3.50440       -2.79640
H         -2.07120        3.52050       -5.09190
H         -2.02840        1.88340       -5.83260
H         -0.62340        2.99540       -6.02410
H          0.14740        0.60540       -5.18540
H          1.23660       -1.08870       -4.65850
H          0.95600       -1.83120       -3.16210
H          2.46060       -0.82010       -3.54850
H          0.04970       -0.62400        3.26490
H         -0.43910       -2.11630        3.81850
H         -1.70920       -1.19220        3.02710
H         -1.57900       -3.69570        2.41850
H         -2.04870       -5.74100        1.42020
H         -0.54760       -6.50020        0.77220
H         -1.77400       -5.78160       -0.34850
H          0.78380       -4.81920       -0.90520
H          2.46560       -3.50510       -1.76420
H          3.18500       -2.59680       -0.40710
H          2.37430       -1.69420       -1.59590
H          3.78170        0.59480       -2.76030
H          3.45310        2.96000       -0.90630
H          3.63820        2.95900       -2.77430
H          6.51690        0.66580        2.04980
H          6.18540        1.95060        0.87810
H          4.89890        1.13390        1.72080
H          8.13470        0.26690       -1.95880
H          8.47570       -1.61890       -0.07960
H          6.22130       -1.67690        1.35430
