65

P          1.05620       -0.04750       -0.06770
C          0.25550        0.23500       -1.85540
C         -1.28540        0.20710       -2.05140
C          0.71140        1.61410       -2.41490
C          0.77690       -0.76900       -2.90850
C          0.62700       -1.92040        0.48750
C          1.27270       -3.12600       -0.24720
C          1.05110       -2.11500        1.95720
C         -0.87840       -2.30690        0.41900
C          0.33460        1.41680        0.88850
C         -1.16460        1.76290        1.37020
C         -1.83500        0.65480        2.19350
C         -1.04900        2.99660        2.29660
C         -2.17560        2.17230        0.28020
Ni         3.51620       -0.04750       -0.06770
Br         3.51620       -2.00640       -1.76200
C          3.51620        1.57870        1.33870
C          3.00670        2.80650        1.47750
N          5.61620       -0.04750       -0.06770
C          6.38320       -1.16580       -0.32990
O          5.79150       -2.37140       -0.42330
C          6.38510       -3.62080       -0.39810
C          7.80050       -1.08290       -0.30820
C          8.42580        0.09910        0.00060
C          7.65140        1.22380        0.29640
C          6.25700        1.11100        0.29010
H         -1.72020        1.20330       -1.96060
H         -1.83890       -0.56610       -1.51310
H         -1.55760        0.05270       -3.12170
H          0.33920        2.45940       -1.80680
H          0.29850        1.78210       -3.43930
H          1.81590        1.68380       -2.49120
H          0.44930       -1.79640       -2.71530
H          1.85530       -0.65440       -3.05930
H          0.38680       -0.54320       -3.92700
H          2.33110       -3.24930        0.02410
H          1.07380       -3.16240       -1.32770
H          0.87480       -4.10520        0.10730
H          2.15410       -2.04020        2.06360
H          0.75870       -3.13240        2.32100
H          0.56850       -1.37940        2.62520
H         -1.28430       -2.29080       -0.60300
H         -1.48320       -1.80250        1.14700
H         -1.05280       -3.35610        0.74080
H          0.65330        2.30850        0.34090
H          0.88070        1.32760        1.84730
H         -1.14830        0.20100        2.93380
H         -2.27020       -0.07570        1.51160
H         -2.74110        1.02400        2.71810
H         -0.39160        2.78500        3.16290
H         -2.04950        3.27570        2.70100
H         -0.65930        3.87200        1.73720
H         -2.61990        1.28400       -0.19380
H         -1.73720        2.89780       -0.43780
H         -3.08290        2.64010        0.71820
H          4.12310        1.27120        2.18610
H          2.38240        3.32020        0.77500
H          3.24480        3.33420        2.40420
H          5.59240       -4.39670       -0.37140
H          7.00210       -3.73910        0.51970
H          7.00330       -3.77100       -1.30600
H          8.41090       -1.95760       -0.46000
H          9.50920        0.17320        0.03150
H          8.12110        2.16020        0.54690
H          5.71800        2.02010        0.49970
