98

P          0.93790       -0.04420       -0.06480
C         -0.23300       -1.14140       -1.08900
C         -1.77040       -1.10390       -0.95360
C          0.03940       -0.77200       -2.57850
C          0.10170       -2.61780       -0.68870
C          0.52750       -0.64250        1.61090
C          1.22130       -1.72250        2.17870
C          0.80150       -2.27110        3.39780
C         -0.30290       -1.75330        4.07010
C         -0.97780       -0.66030        3.53070
C         -0.56930       -0.12160        2.32140
C          0.29500        1.64420       -0.40530
C         -1.08770        1.91910       -0.29140
C         -1.62200        3.16200       -0.59730
C         -0.78580        4.18840       -1.01320
C          0.59240        3.95640       -1.11990
C          1.13340        2.69200       -0.82130
Ni         3.39790       -0.04420       -0.06480
Br         3.39790        1.72920        1.82290
C          3.39790       -1.51630       -1.63180
C          2.73420       -2.37820       -2.42910
P          5.85790       -0.04420       -0.06480
C          6.44370        1.71420       -0.74520
C          6.01920        2.98100        0.04840
C          7.00090        3.33860        1.18500
C          8.45190        3.47870        0.66530
C          8.90680        2.35510       -0.29560
C          7.82820        2.15380       -1.33550
C          6.38550        0.03640        1.80350
C          5.94830       -1.22450        2.61630
C          6.76820       -2.51030        2.28960
C          8.27660       -2.35160        2.40310
C          8.72010       -1.10900        1.63270
C          7.91950        0.10670        2.14450
C          6.40020       -1.63980       -1.06010
C          7.50290       -1.73560       -2.00980
C          8.51580       -0.69880       -2.32470
C          7.76030       -2.91390       -2.72830
C          7.01050       -4.05250       -2.57050
C          7.28420       -5.26200       -3.41430
C          6.01340       -4.06470       -1.61640
C          5.70860       -2.93370       -0.85220
C          4.58680       -3.20730        0.15010
H         -2.23630       -0.20430       -1.38990
H         -2.09800       -1.28560        0.08820
H         -2.20240       -1.91820       -1.58600
H         -0.42510        0.20980       -2.81970
H         -0.38390       -1.52310       -3.27860
H          1.09780       -0.59580       -2.82910
H         -0.33870       -2.87190        0.29710
H          1.17070       -2.83890       -0.51500
H         -0.31860       -3.34920       -1.41690
H          2.05810       -2.16790        1.66030
H          1.32980       -3.11610        3.81620
H         -0.63840       -2.19540        5.00550
H         -1.85930       -0.27920        4.03730
H         -1.15890        0.69380        1.95250
H         -1.79590        1.19120        0.03480
H         -2.69370        3.32370       -0.51400
H         -1.21090        5.15480       -1.25080
H          1.23520        4.76390       -1.43870
H          2.19610        2.53070       -0.92310
H          4.35330       -1.44950       -2.06530
H          1.71540       -2.65630       -2.45720
H          3.28480       -2.88280       -3.22180
H          5.81150        1.73560       -1.66110
H          4.98070        2.95630        0.35000
H          6.02890        3.85360       -0.64570
H          6.95460        2.61120        1.98940
H          6.69520        4.29870        1.65290
H          9.16250        3.58670        1.51290
H          8.48760        4.41720        0.07340
H          9.14200        1.37460        0.11950
H          9.86020        2.66580       -0.76980
H          8.17280        1.61020       -2.18500
H          7.70980        3.13750       -1.84540
H          5.87750        0.88040        2.27730
H          4.86080       -1.38630        2.51610
H          6.11880       -1.02750        3.69870
H          6.66850       -2.76820        1.26460
H          6.42380       -3.37250        2.89830
H          8.78190       -3.25910        1.99010
H          8.56120       -2.25560        3.46890
H          8.56340       -1.24320        0.54740
H          9.81210       -0.97950        1.79490
H          8.37010        1.03940        1.87190
H          8.06510        0.13860        3.24880
H          8.88730       -0.22500       -1.40410
H          8.17050       -0.12220       -3.20520
H          9.47160       -1.13650       -2.69810
H          8.57130       -2.95280       -3.44920
H          8.13620       -5.09270       -4.11050
H          6.38710       -5.48270       -4.03030
H          7.52300       -6.13110       -2.77150
H          5.45430       -4.98110       -1.47660
H          3.69230       -3.63790       -0.34340
H          4.27370       -2.30220        0.68900
H          4.88870       -3.98760        0.87740
