83

P          0.96300       -0.04890       -0.07900
O          0.52480       -0.23290       -1.72690
C         -0.82740       -0.61060       -1.86200
C         -1.11040       -0.92340       -3.32420
O          0.77440       -1.08310        1.26040
C          1.25840       -2.34190        0.83530
C          0.86710       -3.44080        1.80970
C         -0.31070        1.13870        0.42680
C         -1.19300        0.99850        1.50290
C         -2.11210        2.02240        1.77940
C         -2.15880        3.17440        0.98340
C         -1.28070        3.31800       -0.08920
C         -0.36020        2.31000       -0.35950
Ni         3.42300       -0.04890       -0.07900
Br         3.42300        0.48460        2.45550
C          3.42300       -0.49180       -2.18290
C          2.66870       -1.41390       -2.78130
P          5.88300       -0.04890       -0.07900
N          6.81000       -1.60730       -0.27560
C          6.54200       -2.54140        0.88710
C          5.04350       -2.82180        1.10150
C          7.20360       -3.93900        0.73720
C          8.26060       -1.45430       -0.48480
C          8.68300       -0.04210       -0.27510
C         10.22900        0.05980       -0.33790
C          8.04070        0.81150       -1.40490
N          6.54610        0.67570       -1.56520
C          5.96250        2.06480       -1.81890
C          6.09240        3.07260       -0.66860
C          6.56790        2.75730       -3.06450
N          6.77800        0.47060        1.48080
C          6.70810        1.80290        2.30070
C          5.41500        2.45660        2.83740
C          7.57010        1.70830        3.60960
C          8.25060        0.38720        1.15790
H         -1.49640        0.23590       -1.61030
H         -1.07490       -1.50550       -1.24990
H         -0.84390       -0.04890       -3.95750
H         -2.19270       -1.13600       -3.45630
H         -0.52260       -1.80450       -3.65470
H          2.35980       -2.30960        0.78250
H          0.84510       -2.65360       -0.15310
H          1.22620       -3.20220        2.83050
H          1.33160       -4.39600        1.48270
H         -0.23590       -3.57250        1.81800
H         -1.17700        0.11980        2.13160
H         -2.79290        1.92420        2.61230
H         -2.87080        3.96130        1.19720
H         -1.31040        4.20580       -0.71020
H          0.31690        2.44360       -1.19870
H          4.21520       -0.07130       -2.78930
H          1.96300       -2.01860       -2.22900
H          2.82300       -1.62780       -3.83530
H          6.92310       -2.08100        1.82220
H          4.61170       -3.38390        0.24550
H          4.47500       -1.89640        1.26860
H          4.90840       -3.43190        2.02280
H          6.84910       -4.44630       -0.18330
H          6.94300       -4.57410        1.61270
H          8.30830       -3.93910        0.72710
H          8.52820       -1.80670       -1.50400
H          8.86640       -2.03670        0.23430
H         10.61660       -0.29170       -1.31410
H         10.69100       -0.56120        0.46500
H         10.56640        1.10660       -0.17410
H          8.49310        0.52710       -2.37840
H          8.38520        1.84320       -1.21020
H          4.87790        1.95840       -2.01230
H          7.13250        3.30990       -0.36340
H          5.50720        2.71660        0.18070
H          5.63730        4.06360       -0.91870
H          7.64690        3.01290       -2.91620
H          6.05260        3.73140       -3.23160
H          6.45390        2.13390       -3.95360
H          7.13880        2.62860        1.71210
H          5.02720        1.90870        3.72420
H          4.65640        2.69160        2.07130
H          5.62960        3.45720        3.27710
H          7.20410        0.87840        4.25200
H          7.51690        2.64500        4.21270
H          8.65210        1.56740        3.43460
H          8.72740       -0.26950        1.92020
H          8.76460        1.37320        1.25210
