75

P          0.94820       -0.08290       -0.02090
C         -0.16440       -1.68670       -0.33780
C         -1.74340       -1.83160       -0.37750
C         -2.44930       -1.64430       -1.72550
C         -1.79560       -2.50570       -2.83290
C         -0.25120       -2.46430       -2.89600
C          0.33650       -2.65750       -1.48950
C          0.33700        0.34510        1.78990
C          0.71670        1.73170        2.36330
C         -0.14340        2.86700        1.75840
C         -1.64250        2.69530        1.93600
C         -2.04690        1.32270        1.39310
C         -1.19100        0.24540        2.12310
C          0.47290        1.30400       -1.38360
C          0.68310        2.76870       -1.67970
C          1.30780        3.95120       -0.94670
C          0.16310        3.33830       -2.88610
C         -0.60090        2.63260       -3.78110
C         -0.87450        1.32550       -3.50280
C         -0.33740        0.73840       -2.36070
Ni         3.40820       -0.08290       -0.02090
Br         3.40820        2.47750        0.36930
C          3.40820       -2.20840       -0.34490
C          2.68780       -3.02490        0.42560
N          5.50820       -0.08290       -0.02090
C          6.26870       -0.95190       -0.78830
N          5.71040       -1.58890       -1.96150
C          4.64050       -0.94810       -2.71930
C          6.30930       -2.76350       -2.59320
C          7.66890       -0.96650       -0.64100
C          8.28790       -0.09510        0.24060
C          7.52280        0.82400        0.94170
C          6.13980        0.83400        0.77670
H          0.08480       -2.21690        0.59840
H         -2.33390       -1.25900        0.32790
H         -1.93760       -2.89930       -0.11090
H         -2.53800       -0.57080       -1.96310
H         -3.51050       -1.95980       -1.62070
H         -2.23090       -2.24340       -3.82050
H         -2.05850       -3.55750       -2.60430
H          0.18600       -1.57900       -3.39210
H          0.09700       -3.27860       -3.56500
H          1.41640       -2.68300       -1.62770
H          0.03250       -3.68850       -1.19270
H          0.81840       -0.42300        2.42930
H          1.78830        1.89980        2.26670
H          0.52420        1.74400        3.46060
H         -0.05360        2.80470        0.69270
H          0.17670        3.85670        2.15170
H         -2.17860        3.50770        1.37990
H         -1.91370        2.79320        3.00750
H         -1.88620        1.26640        0.29330
H         -3.13520        1.19450        1.57980
H         -1.55630       -0.77060        2.04300
H         -1.36610        0.42700        3.20940
H          1.50360        3.92800        0.11900
H          0.57970        4.79380       -0.92260
H          2.21130        4.29870       -1.49320
H          0.31590        4.38210       -3.13990
H         -0.99920        3.11550       -4.66430
H         -1.50880        0.76150       -4.17490
H         -0.57740       -0.21600       -2.20720
H          4.13160       -2.77680       -0.88860
H          2.04080       -2.64800        1.19730
H          2.80720       -4.10300        0.32380
H          4.28140       -0.01150       -2.21790
H          3.78180       -1.62930       -2.86340
H          5.00390       -0.65210       -3.72620
H          7.12770       -3.20520       -1.99620
H          6.69230       -2.50170       -3.60600
H          5.53490       -3.55040       -2.70590
H          8.31780       -1.57430       -1.25910
H          9.36590       -0.09750        0.35060
H          7.99830        1.51830        1.62410
H          5.58460        1.51840        1.38960
