59

P          1.04680       -0.08570       -0.02160
C          0.13350       -0.21060       -1.62190
C         -0.92390       -1.10320       -1.87430
C         -1.39330       -1.29180       -3.19250
C         -0.80130       -0.61530       -4.26780
C          0.22530        0.28130       -4.03020
C          0.66140        0.49260       -2.72910
C          0.68160       -1.73980        0.71980
C          1.06480       -2.91610        0.04380
C          0.71890       -4.18030        0.53600
C         -0.02850       -4.30320        1.71520
C         -0.39900       -3.16330        2.40970
C         -0.04520       -1.89890        1.92720
C          0.38860        1.56880        0.54170
C          0.71200        2.83410       -0.05310
C          1.78410        3.05550       -1.07170
C         -0.00090        3.99760        0.31400
C         -0.98040        3.96220        1.29450
C         -1.27240        2.76070        1.92000
C         -0.61270        1.59570        1.54330
Ni         3.50680       -0.08570       -0.02160
Br         3.50680        0.06530        2.56390
C          3.50680       -0.21100       -2.16800
C          4.37610        0.40860       -2.97450
N          5.60680       -0.08570       -0.02160
C          6.30710       -0.66470       -1.05100
C          7.70620       -0.82200       -1.00870
O          8.39770       -1.51160       -1.95450
C          7.83850       -2.23580       -2.99000
C          8.40270       -0.30640        0.07750
C          7.70600        0.28870        1.11890
C          6.31280        0.35590        1.06870
H         -1.36300       -1.68000       -1.07790
H         -2.19040       -1.98890       -3.39500
H         -1.11870       -0.79250       -5.28850
H          0.71640        0.79590       -4.84920
H          1.48540        1.15340       -2.64570
H          1.61890       -2.85660       -0.88880
H          0.99620       -5.08610        0.00880
H         -0.31550       -5.27670        2.09560
H         -0.97570       -3.24400        3.32210
H         -0.36060       -1.08790        2.52500
H          2.47540        2.19830       -1.12320
H          2.41080        3.91990       -0.76420
H          1.32420        3.31010       -2.05230
H          0.21390        4.95010       -0.15740
H         -1.51880        4.86150        1.56800
H         -2.03420        2.73140        2.69100
H         -0.95160        0.72510        2.03400
H          2.71810       -0.77520       -2.63790
H          5.15930        1.04160       -2.57430
H          4.29250        0.30300       -4.05090
H          5.79420       -1.14450       -1.85510
H          8.64110       -2.76710       -3.54050
H          7.30410       -1.55920       -3.68820
H          7.13550       -3.00100       -2.59010
H          9.47970       -0.40140        0.13500
H          8.23940        0.67760        1.97720
H          5.83320        0.82350        1.90210
