54

P          1.01240        0.09720        0.02000
C          0.00310       -1.46890       -0.17660
C         -1.12020       -1.74100        0.62230
C         -1.65260       -3.03550        0.71460
C         -1.06900       -4.10020        0.02890
C          0.00810       -3.86150       -0.81590
C          0.51840       -2.55800       -0.94820
C          0.54320        0.39730        1.76130
C          0.87190       -0.49080        2.80810
C          0.29570       -0.32050        4.08190
C         -0.61030        0.71960        4.31530
C         -0.91640        1.61280        3.29320
C         -0.33440        1.46170        2.03680
C          0.31320        1.26540       -1.21930
C          1.05410        1.89530       -2.26090
O          2.37540        1.62230       -2.43040
C          3.18910        2.19600       -3.39550
C          0.38910        2.80440       -3.12600
C         -0.96520        3.08700       -2.97040
C         -1.69360        2.44940       -1.97710
C         -1.06810        1.53790       -1.12830
Ni         3.47240        0.09720        0.02000
Br         3.62130        2.58730        0.12610
C          3.41310       -2.02460       -0.03880
C          4.22840       -2.97680       -0.56030
C          5.62240        0.09720        0.02000
N          6.41520       -0.92990        0.39580
H          6.12960       -1.84310        0.80790
C          7.67900       -0.48590        0.25080
Cl         9.11840       -1.38360        0.69230
C          7.64160        0.78000       -0.27890
Cl         9.00580        1.76520       -0.77470
N          6.35950        1.15610       -0.38360
H         -1.56060       -0.97060        1.22700
H         -2.49250       -3.22290        1.36610
H         -1.44650       -5.10990        0.16080
H          0.47180       -4.70030       -1.33250
H          1.38780       -2.45190       -1.58700
H          1.52380       -1.33770        2.63970
H          0.51830       -1.01090        4.88590
H         -1.08600        0.83310        5.28250
H         -1.62850        2.41190        3.46000
H         -0.62530        2.15950        1.27420
H          4.22340        1.81410       -3.28700
H          3.21270        3.30200       -3.27310
H          2.82450        1.94660       -4.41660
H          0.90810        3.31030       -3.92940
H         -1.45380        3.79670       -3.62800
H         -2.74820        2.66540       -1.86000
H         -1.67590        1.05880       -0.37390
H          2.48680       -2.41910        0.28280
H          5.17000       -2.79890       -1.08270
H          3.85810       -3.99650       -0.54610
H          6.03050        2.05360       -0.79620
