55

P          1.09080        0.02850        0.03070
C          0.49090       -0.01820        1.79020
C         -0.30080       -1.10140        2.25950
C         -0.80120       -1.13140        3.56340
C         -0.52070       -0.09680        4.44640
C          0.25220        0.98030        4.01830
C          0.73840        1.02230        2.70250
C          0.75560        1.57160       -0.84110
C          0.04180        2.61220       -0.22180
C         -0.25670        3.78180       -0.92630
C          0.15210        3.92250       -2.25400
C          0.86210        2.89300       -2.87790
C          1.16360        1.72030       -2.17510
C         -0.12940       -1.09120       -0.79230
C         -1.62000       -0.96300       -0.80320
C         -2.25100        0.12980       -1.40160
C         -3.64160        0.14950       -1.52130
C         -4.40820       -0.92190       -1.05140
C         -3.78690       -2.01890       -0.45670
C         -2.40080       -2.04360       -0.33490
Ni         3.55080        0.02850        0.03070
Br         3.55080        2.20840        1.42930
C          3.55080       -1.78110       -1.13030
C          2.65770       -2.64390       -1.61450
N          5.65080        0.02850        0.03070
C          6.33560        1.19050        0.31280
C          7.73140        1.27310        0.25030
C          8.47490        0.14610       -0.05610
F          9.82760        0.20560       -0.11850
C          7.81600       -1.04620       -0.28760
C          6.42130       -1.08480       -0.25040
H         -0.55480       -1.93890        1.64670
H         -1.41580       -1.96470        3.88780
H         -0.90860       -0.12120        5.45770
H          0.46280        1.79300        4.70000
H          1.27380        1.89790        2.43070
H         -0.30780        2.52400        0.79430
H         -0.81440        4.57510       -0.44480
H         -0.08760        4.82640       -2.79980
H          1.17130        3.00180       -3.90930
H          1.70300        0.92570       -2.67450
H          0.08000       -2.08540       -0.36240
H          0.15810       -1.10360       -1.86550
H         -1.67100        0.94290       -1.80980
H         -4.12400        0.98830       -2.00100
H         -5.48310       -0.91200       -1.16250
H         -4.37140       -2.86180       -0.10910
H         -1.94280       -2.92910        0.09350
H          4.49260       -2.09230       -1.49590
H          1.62540       -2.63810       -1.48720
H          3.00970       -3.47790       -2.22140
H          5.85030        2.11800        0.50320
H          8.23100        2.21720        0.42550
H          8.37940       -1.94870       -0.49320
H          6.03610       -2.06850       -0.36770
