52

P          1.06190       -0.02660       -0.07390
C          0.25080        1.57020       -0.32240
C         -1.11860        1.75520       -0.55450
C         -1.59880        3.03810       -0.87500
C         -0.72180        4.13020       -0.96360
C          0.64260        3.94020       -0.74200
C          1.11960        2.67110       -0.43440
C          0.69750       -0.74800       -1.68880
C          1.12530       -0.08430       -2.85110
C          0.86950       -0.62580       -4.11660
C          0.16780       -1.82610       -4.22530
C         -0.27930       -2.48690       -3.07560
C         -0.01550       -1.94850       -1.80700
C          0.46260       -0.54570        1.58570
C          0.83130       -1.81950        2.12050
C          1.81990       -2.74010        1.47250
C          0.24530       -2.28760        3.30630
C         -0.70080       -1.52490        3.97730
C         -1.06090       -0.27570        3.48060
C         -0.48540        0.21420        2.30310
Ni         3.52190       -0.02660       -0.07390
Br         3.52190        1.67660        1.87730
C          3.52190       -1.44050       -1.69360
C          3.57380       -2.77240       -1.60860
N          5.62190       -0.02660       -0.07390
C          6.43600       -0.73610       -0.88330
O          7.70180       -0.53370       -0.59230
C          7.74430        0.31240        0.41000
C          6.45240        0.64660        0.74480
H         -1.80170        0.91980       -0.52400
H         -2.64970        3.19700       -1.07300
H         -1.08140        5.11430       -1.22500
H          1.33710        4.76820       -0.83200
H          2.18510        2.54770       -0.31490
H          1.67580        0.84500       -2.77980
H          1.21470       -0.11340       -5.00260
H         -0.03260       -2.24460       -5.21210
H         -0.82410       -3.41650       -3.17150
H         -0.36400       -2.46980       -0.92500
H          2.25040       -2.27820        0.58640
H          1.33340       -3.69630        1.18270
H          2.65240       -2.95740        2.17550
H          0.51320       -3.26180        3.70250
H         -1.16010       -1.90910        4.87910
H         -1.80870        0.30730        4.00050
H         -0.83120        1.17040        1.95420
H          3.54380       -1.00940       -2.68790
H          3.60640       -3.30650       -0.67180
H          3.59300       -3.35500       -2.52570
H          6.10930       -1.40070       -1.66750
H          8.64840        0.66750        0.88610
H          6.16810        1.31550        1.53950
