112

P          1.04610       -0.06310       -0.06240
C          0.21740        1.38250        0.80930
C         -0.89470        2.06880        0.27620
C         -1.28150        3.32580        0.78360
C         -0.56670        3.93380        1.81970
C          0.50280        3.26790        2.38790
C          0.87110        2.01830        1.89980
C          0.33220        0.18890       -1.78590
C          0.44860        1.39730       -2.53910
C         -0.08280        1.51360       -3.83060
C         -0.75400        0.44460       -4.40180
C         -0.94050       -0.73070       -3.66620
C         -0.40520       -0.86110       -2.37320
C          0.44160       -1.45370        1.06150
C          0.46230       -2.87470        0.68990
O          0.88360       -3.28780       -0.55400
C          0.87680       -4.59680       -1.02010
C         -0.02890       -3.84000        1.56440
C         -0.60520       -3.49940        2.76870
C         -0.71620       -2.16690        3.11970
C         -0.19690       -1.16490        2.29800
Ni         3.50610       -0.06310       -0.06240
Br         3.50610       -0.00970        2.52710
C          3.50610       -0.10750       -2.21190
C          4.47810       -0.47390       -3.06310
C          5.65610       -0.06310       -0.06240
N          6.50640       -1.10610       -0.24220
C          6.47180       -2.67950       -0.20620
C          5.40730       -3.69160       -0.56460
C          4.00780       -3.53120       -1.06190
C          3.49270       -2.30790       -0.56790
C          3.89510       -3.75410       -2.58410
C          5.58890       -5.08940       -0.45930
C          6.71140       -5.64920        0.01840
C          7.70600       -4.83880        0.43920
C          7.63070       -3.42700        0.36140
C          8.87480       -2.84190        0.97160
C          9.85660       -2.58830       -0.20630
C          8.48330       -1.86180        2.12590
C          7.78440       -0.42590       -0.52030
C          7.64320        1.05260       -0.37290
N          6.39330        1.21600        0.26930
C          6.06420        2.60110        0.75840
C          4.94430        3.39150        0.28680
C          4.09580        3.07760       -0.88260
C          4.88680        2.45020       -2.02390
C          2.86460        2.47590       -0.31730
C          4.60080        4.64060        0.81290
C          5.38320        5.25840        1.72090
C          6.56240        4.66900        2.09100
C          6.95180        3.36710        1.66370
C          8.34530        2.94840        2.19090
C          9.44570        3.64120        1.33990
C          8.60900        3.30400        3.67770
H         -1.43940        1.67220       -0.56080
H         -2.11200        3.85960        0.34690
H         -0.82160        4.92590        2.17630
H          1.08480        3.73530        3.17850
H          1.72560        1.63220        2.35950
H          0.89560        2.29780       -2.20700
H          0.05360        2.42310       -4.39390
H         -1.16430        0.53780       -5.40300
H         -1.50290       -1.54280       -4.10770
H         -0.56430       -1.77920       -1.84360
H          1.30020       -4.64360       -2.04080
H         -0.15230       -4.99730       -1.06740
H          1.48540       -5.26950       -0.37310
H          0.00410       -4.89520        1.32370
H         -0.99060       -4.28210        3.41080
H         -1.21370       -1.91300        4.04360
H         -0.34740       -0.15960        2.64730
H          2.59030        0.11070       -2.71210
H          5.45410       -0.80260       -2.73640
H          4.26490       -0.47650       -4.13130
H          3.32830       -4.22510       -0.54340
H          4.27550       -1.70620       -0.89320
H          3.42370       -2.25530        0.53970
H          2.57580       -2.02700       -1.09000
H          4.66130       -3.18420       -3.14060
H          2.89640       -3.45880       -2.96870
H          4.02820       -4.83610       -2.80200
H          4.81180       -5.79920       -0.73950
H          6.78990       -6.72570        0.08920
H          8.56860       -5.35290        0.84390
H          9.50050       -3.56550        1.54220
H          9.43800       -2.12840       -1.10910
H         10.15080       -3.57590       -0.62690
H         10.76420       -2.04560        0.11200
H          7.57020       -1.26170        1.94370
H          9.30940       -1.17030        2.37600
H          8.20430       -2.43260        3.03730
H          8.13340       -0.61150       -1.55550
H          8.56930       -0.60370        0.17890
H          7.60680        1.57960       -1.34830
H          8.51630        1.44290        0.15020
H          3.75310        3.99240       -1.41560
H          5.48380        1.63060       -2.44930
H          5.77400        3.10730       -2.10140
H          4.92530        1.58790       -1.43790
H          3.09820        1.82920        0.53710
H          2.43820        1.89080       -1.08830
H          2.18770        3.27150        0.06020
H          3.71320        5.16820        0.47380
H          5.09720        6.23730        2.08440
H          7.15630        5.28920        2.73200
H          8.46800        1.85170        2.15510
H          9.35620        4.74870        1.37120
H          9.40730        3.35680        0.26940
H         10.45730        3.36310        1.70740
H          8.57280        4.38970        3.89940
H          9.64360        3.01350        3.95850
H          7.89580        2.78020        4.34180
