22

P          1.06190       -0.02460       -0.07460
C         -0.23910        0.91840        0.79130
C          0.76700        0.74150       -1.71770
C          0.32380       -1.65450        0.29110
Ni         3.52190       -0.02460       -0.07460
Br         3.52190        2.44540       -0.85380
C          3.52190       -2.07500        0.57220
C          3.09770       -3.05570       -0.21870
C          5.67190       -0.02460       -0.07460
O          6.88990       -0.02460       -0.07460
H         -1.24740        0.73350        0.37590
H         -0.00340        2.00340        0.70920
H         -0.22190        0.65930        1.87530
H         -0.31030        0.68960       -1.95630
H          1.34630        0.20360       -2.48910
H          1.05720        1.81840       -1.70610
H         -0.78110       -1.59610        0.16330
H          0.53530       -1.96280        1.32410
H          0.64090       -2.41110       -0.44460
H          3.85820       -2.30310        1.57820
H          2.74390       -2.83180       -1.21900
H          3.08400       -4.07990        0.13990
