111

P          0.93280       -0.07380       -0.00650
C         -0.03120       -0.61660        1.73570
C          0.52850        0.22870        2.91330
C         -0.16900        1.52000        3.36870
C         -1.64060        1.30010        3.72600
C         -2.40600        0.33450        2.78690
C         -1.50620       -0.88990        2.38620
C          0.48920        1.84340        0.07130
C          0.72850        3.05540       -0.90080
C         -0.37170        3.31880       -1.98630
C         -1.80360        3.38560       -1.40630
C         -2.04930        2.11210       -0.64940
C         -0.99340        2.05440        0.44170
C         -0.03850       -0.77130       -1.74990
C         -1.41010       -1.29390       -1.67280
C         -2.25800       -1.25730       -0.50450
C         -2.18940       -1.81920       -2.73980
C         -1.74570       -1.88440       -4.01720
C         -2.59440       -2.36630       -5.17380
C         -0.49410       -1.42220       -4.23540
C          0.35820       -0.87070       -3.22600
C          1.54220       -0.44050       -4.04670
Ni         3.39280       -0.07380       -0.00650
Br         3.39280        0.83030       -2.43360
C          3.39280       -0.82430        2.00830
C          4.45670       -1.35460        2.62520
C          5.54280       -0.07380       -0.00650
N          6.33480        0.42080        0.97080
C          6.18380        1.30410        2.21950
C          4.96570        1.84520        2.83590
C          3.58580        1.84480        2.35410
C          4.96780        2.54340        4.06910
C          6.11030        2.90320        4.71160
C          6.06360        3.66280        6.01280
C          7.29480        2.62060        4.09390
C          7.37240        1.87300        2.89480
C          8.80690        1.86730        2.39790
C          7.67380        0.06070        0.55550
C          7.53160       -0.91690       -0.54240
N          6.32750       -0.48200       -1.15930
C          6.01360       -0.98350       -2.47940
C          4.88200       -1.80820       -2.78960
C          3.90500       -2.34500       -1.76580
C          4.62810       -2.15110       -4.13850
C          5.44240       -1.69240       -5.17790
C          5.13360       -1.96990       -6.62350
C          6.56530       -0.94290       -4.88050
C          6.88060       -0.59780       -3.56370
C          8.13870        0.22910       -3.39230
H          0.40260       -1.63900        1.79600
H          1.43230        0.59340        2.55460
H          0.64160       -0.41960        3.81420
H         -0.04210        2.31890        2.65190
H          0.37780        1.94830        4.23670
H         -2.15230        2.28900        3.79750
H         -1.63710        0.83510        4.72690
H         -2.87080        0.83810        1.91730
H         -3.32220        0.01000        3.31960
H         -2.11540       -1.65110        1.88490
H         -1.34030       -1.40950        3.35640
H          1.12690        2.10980        0.92670
H          1.75160        3.09120       -1.30820
H          0.64140        3.96320       -0.24440
H         -0.33530        2.51410       -2.74110
H         -0.19120        4.30190       -2.47350
H         -2.57770        3.49860       -2.19640
H         -1.93140        4.24560       -0.70290
H         -2.00610        1.25280       -1.33620
H         -3.06240        2.13600       -0.17880
H         -1.19990        1.25150        1.01640
H         -1.14580        2.97610        1.04630
H         -1.81240       -0.54030        0.11620
H         -2.43710       -2.29170       -0.13450
H         -3.23900       -0.77490       -0.72720
H         -3.21360       -2.15570       -2.57960
H         -3.62500       -2.63050       -4.86230
H         -2.12660       -3.24550       -5.66680
H         -2.67040       -1.55270       -5.93170
H         -0.23220       -1.50430       -5.29880
H          1.57520       -0.62430       -5.15040
H          2.40840       -1.02890       -3.77640
H          1.55360        0.66540       -4.07430
H          2.52300       -1.04580        2.56590
H          5.43800       -1.41410        2.19270
H          4.33160       -1.82130        3.59940
H          3.47520        1.48840        1.33350
H          3.14540        2.86490        2.34370
H          3.08790        1.31020        3.18230
H          4.03560        2.85760        4.53870
H          5.02420        3.77790        6.39250
H          6.49330        4.67550        5.87230
H          6.64590        3.11800        6.78530
H          8.17600        3.01650        4.57850
H          9.49770        2.48980        3.00370
H          8.83780        2.39210        1.41960
H          9.27860        0.88020        2.41840
H          8.22250       -0.48160        1.34400
H          8.16440        0.94310        0.11010
H          7.33500       -1.93340       -0.12190
H          8.44660       -1.00060       -1.13500
H          4.16670       -2.08220       -0.73270
H          3.85390       -3.44960       -1.83810
H          2.87710       -1.97300       -1.94470
H          3.76340       -2.75410       -4.39110
H          4.19080       -2.53990       -6.74590
H          5.96640       -2.53440       -7.09550
H          5.02070       -1.00060       -7.16100
H          7.20430       -0.61880       -5.69630
H          8.55550        0.56870       -4.36330
H          8.96310       -0.38770       -2.99110
H          7.94880        1.12620       -2.77040
