52

P          0.99940       -0.07420        0.06710
C          0.03920       -0.10960       -1.59910
C         -1.49650       -0.17140       -1.52580
C          0.38560        1.17960       -2.38990
C          0.51690       -1.26890       -2.49500
C          0.49720       -1.75260        0.63140
C          1.39180       -2.80460        0.90470
C          0.92280       -4.05920        1.33020
C         -0.44430       -4.27330        1.52570
C         -1.33790       -3.22540        1.32890
C         -0.86870       -1.98670        0.90470
C          0.31080        1.40200        0.87160
C         -0.47350        1.23630        2.03160
C         -0.95900        2.34600        2.73140
C         -0.68180        3.63610        2.27710
C          0.08300        3.81850        1.12280
C          0.58090        2.71270        0.42260
Ni         3.45940       -0.07420        0.06710
Br         3.50140       -2.06690       -1.45170
C          3.64360        1.67510        1.28160
C          2.84660        2.25640        2.16610
C          5.60940       -0.07420        0.06710
N          6.46810        0.75140        0.74090
H          6.34270        1.53510        1.40430
C          7.71120        0.35880        0.42760
Cl         9.17210        1.11540        1.03850
C          7.63330       -0.70820       -0.41550
Cl         8.97850       -1.59990       -1.10140
N          6.33820       -0.98300       -0.63660
H         -1.89640        0.61690       -0.85540
H         -1.86820       -1.17450       -1.25810
H         -1.93000       -0.00720       -2.53800
H         -0.08450        2.07620       -1.95170
H         -0.00770        1.13530       -3.42960
H          1.48720        1.32350       -2.45980
H          0.40130       -2.25460       -2.00130
H          1.56080       -1.10530       -2.80520
H         -0.04720       -1.29770       -3.45220
H          2.44840       -2.67520        0.80860
H          1.61620       -4.86490        1.51460
H         -0.80830       -5.23770        1.85470
H         -2.39630       -3.37220        1.51420
H         -1.59660       -1.20200        0.81290
H         -0.68120        0.25290        2.42590
H         -1.53690        2.20470        3.63640
H         -1.04650        4.49340        2.83000
H          0.30950        4.82160        0.78360
H          1.21390        2.88830       -0.43520
H          4.55050        2.21750        1.21030
H          1.93660        1.83150        2.50430
H          3.16670        3.17180        2.65830
H          6.02860       -1.76230       -1.24630
