93

C          0.90100       -0.64300       -0.00200
N         -0.38920       -1.19770       -0.02840
C         -0.90310       -2.59680        0.03680
C         -0.22440       -3.60310        0.80180
C          0.87900       -3.30540        1.75630
C         -0.65110       -4.93590        0.81950
C         -1.78760       -5.34430        0.17160
C         -2.21600       -6.79000        0.23770
C         -2.56700       -4.39210       -0.47200
C         -2.17880       -3.02780       -0.54150
C         -3.20460       -2.13260       -1.20060
C         -1.20920       -0.13090        0.03920
C         -0.49830        1.02060        0.14170
N          0.81640        0.74370        0.16670
C          1.82640        1.81030        0.23430
C          1.71510        3.03940        1.00960
C          0.54330        3.52930        1.84100
C          2.78000        3.96660        0.99710
C          3.92050        3.76210        0.23060
C          5.04170        4.76300        0.22020
C          3.97560        2.65440       -0.60410
C          2.93000        1.72420       -0.64020
C          2.89530        0.75400       -1.77880
Ni         2.65840       -1.88140       -0.01350
Br         1.93000       -2.89410       -2.28330
C          3.26320       -1.04080        1.87070
C          4.14600       -1.56890        2.70820
C          4.41590       -3.11990       -0.02500
N          4.47050       -4.48380       -0.20350
C          3.27550       -5.38490       -0.30520
C          3.48250       -6.83780        0.19290
C          2.21090       -7.69290        0.22700
C          2.51300       -9.10210        0.75910
C          5.79810       -4.81630       -0.09940
C          6.52930       -3.66180        0.08890
C          7.92650       -3.67700        0.13850
C          8.59520       -4.90760        0.06140
C          7.86880       -6.08880       -0.07330
C          6.46950       -6.05860       -0.16490
N          5.69470       -2.59360        0.14670
C          6.21960       -1.18350        0.15960
C          6.92630       -0.77740        1.49330
C          7.85600        0.45810        1.58310
C          7.21710        1.81960        1.30840
H          1.70680       -2.91840        1.25960
H          1.28270       -4.20100        2.27100
H          0.51990       -2.59360        2.52830
H         -0.10610       -5.66730        1.39720
H         -1.46230       -7.41230        0.77090
H         -2.32200       -7.19850       -0.78850
H         -3.18090       -6.88730        0.77810
H         -3.50350       -4.72380       -0.90290
H         -4.07810       -2.70280       -1.59230
H         -2.77180       -1.55690       -2.03580
H         -3.68750       -1.48250       -0.44230
H         -2.27320       -0.11710        0.06580
H         -0.94890        1.99990        0.17660
H         -0.32790        2.86940        1.93880
H          0.18180        4.47850        1.37100
H          0.85700        3.78730        2.87280
H          2.71090        4.87900        1.58330
H          4.81470        5.65370        0.84650
H          5.21680        5.11250       -0.82040
H          5.97640        4.30550        0.60240
H          4.81860        2.55340       -1.27830
H          3.67310        0.97620       -2.53420
H          1.92170        0.93680       -2.29660
H          2.96130       -0.29350       -1.47390
H          2.73010       -0.15490        2.19860
H          4.68230       -2.48060        2.49160
H          4.33900       -1.07140        3.65510
H          2.87870       -5.38970       -1.34020
H          2.49420       -4.96590        0.35750
H          3.92000       -6.81000        1.21800
H          4.11560       -7.38000       -0.51960
H          1.80740       -7.77830       -0.80460
H          1.44830       -7.23280        0.88210
H          3.29750       -9.60100        0.14910
H          1.59540       -9.72680        0.72320
H          2.86240       -9.05530        1.81380
H          8.51240       -2.77450        0.23330
H          9.67580       -4.93950        0.10450
H          8.39500       -7.04070       -0.12350
H          6.03080       -7.01770       -0.27590
H          5.43540       -0.45070       -0.11780
H          6.98260       -1.12690       -0.65440
H          7.53750       -1.62650        1.84820
H          6.17810       -0.56660        2.24470
H          8.76500        0.33710        0.95820
H          8.19100        0.49350        2.64680
H          6.98640        1.94300        0.23250
H          7.93940        2.61740        1.60280
H          6.29970        1.96470        1.91750
