52

P          1.04420        0.00420        0.08960
C          0.20120        1.47940        0.95880
C         -1.31450        1.73460        0.96550
C          0.65050        1.61190        2.43630
C          0.64420        0.15930       -1.72940
C         -0.85740        0.15060       -2.08350
C          1.28990        1.37370       -2.39350
C          0.54100       -1.54360        1.04280
C          0.96060       -1.60360        2.51430
C         -0.97050       -1.85800        0.97610
Ni         3.50420        0.00420        0.08960
Br         3.50420       -2.24380       -1.19670
C          3.50420        1.87030        1.15740
C          4.07980        2.51020        2.19970
N          5.60420        0.00420        0.08960
C          6.30490        0.59040        1.09050
N          7.66060        0.63730        1.09360
C          8.38170        0.17490        0.05370
O          9.72400        0.31940        0.02680
C         10.43530        0.86210        1.09750
C          7.70470       -0.44690       -1.00800
C          6.30940       -0.56600       -0.94020
H          0.63800        2.34710        0.42610
H         -1.87590        0.98240        1.53890
H         -1.76250        1.88570       -0.01460
H         -1.49700        2.70340        1.48550
H          0.00440        1.04100        3.12040
H          0.55760        2.66750        2.77190
H          1.68280        1.28640        2.62960
H          1.06280       -0.74810       -2.21310
H         -1.37170        1.08110       -1.81020
H         -1.40590       -0.70460       -1.66100
H         -1.00180        0.08000       -3.18150
H          0.92540        2.31770       -1.94170
H          1.01490        1.38570       -3.47880
H          2.38880        1.30590       -2.32470
H          1.05830       -2.37880        0.53120
H          0.32380       -0.97800        3.15670
H          2.02890       -1.35120        2.64510
H          0.78740       -2.63420        2.89630
H         -1.58390       -1.08690        1.46820
H         -1.19830       -2.80880        1.50300
H         -1.32360       -2.00850       -0.05340
H          2.82050        2.52850        0.63880
H          4.80650        2.17380        2.91410
H          3.79390        3.54240        2.37880
H          5.82990        0.84570        1.97320
H         11.51040        0.91850        0.84510
H         10.31560        0.21480        1.99500
H         10.07230        1.88570        1.34250
H          8.26020       -0.80220       -1.87260
H          5.79990       -0.99900       -1.78350
