61

C          0.90100       -0.64300       -0.00200
N          0.90960        0.63850       -0.43080
C          2.00250        1.36430       -1.06420
C         -0.33770        1.11270       -0.26270
C         -1.10550        0.11560        0.29010
N         -0.33740       -0.98270        0.45160
C         -0.79570       -2.21350        1.10320
Ni         2.65840       -1.88140       -0.01350
Br         3.88050       -0.16120        1.48830
C          1.64400       -3.30950       -1.26020
C          0.41220       -3.21450       -1.76980
C          4.41590       -3.11990       -0.02500
N          4.44290       -4.54900       -0.02480
C          3.44140       -5.68170        0.26690
C          2.27200       -6.03640       -0.67670
C          1.28150       -7.20410       -0.61900
C          0.16070       -6.91120       -1.66040
C          5.78310       -4.82980       -0.00160
C          6.51560       -3.67760        0.05080
C          7.92690       -3.70220        0.04850
C          8.57370       -4.94280        0.02630
C          7.82640       -6.12850       -0.00090
C          6.42240       -6.09230       -0.01520
N          5.71680       -2.60070        0.06650
C          6.22370       -1.21270       -0.25230
C          6.89100       -0.28310        0.82780
C          7.20620        1.13090        0.22690
C          6.98090        2.29150        1.21600
H          2.90030        0.72110       -1.16530
H          2.24480        2.27640       -0.48380
H          1.68490        1.66470       -2.08890
H         -0.66890        2.10800       -0.53140
H         -2.15010        0.19340        0.56300
H         -1.84730       -2.09360        1.44610
H         -0.16540       -2.42350        1.99020
H         -0.78030       -3.09170        0.44070
H          2.29980       -4.01970       -1.66550
H         -0.25950       -2.40540       -1.54570
H          0.07450       -3.93290       -2.50620
H          3.01890       -5.51420        1.28160
H          3.95750       -6.64580        0.35900
H          2.67040       -6.04720       -1.72130
H          1.53210       -5.32120       -0.32640
H          0.80830       -7.26420        0.38640
H          1.77010       -8.16670       -0.86340
H         -0.34430       -5.94120       -1.44390
H         -0.63150       -7.68340       -1.65520
H          0.57690       -6.83430       -2.69160
H          8.50980       -2.79290        0.07670
H          9.65460       -4.98860        0.03500
H          8.33560       -7.08640       -0.01960
H          5.91320       -7.03530       -0.05980
H          5.42940       -0.67640       -0.80380
H          7.02100       -1.33530       -1.03810
H          7.77940       -0.71190        1.32580
H          6.27190       -0.10590        1.69600
H          6.52520        1.36600       -0.62170
H          8.24440        1.14470       -0.16930
H          5.90200        2.34810        1.48880
H          7.23680        3.26760        0.74250
H          7.57750        2.17600        2.14140
