77

C          0.90100       -0.64300       -0.00200
N         -0.44210       -0.98110       -0.03260
C         -1.09580       -2.30840       -0.13100
C         -1.12440       -3.00830        1.24220
C         -2.22990       -2.44070        2.16210
C         -3.60870       -2.70050        1.53630
C         -3.72170       -1.95070        0.20950
C         -2.55150       -2.32650       -0.74580
C         -1.10080        0.18500        0.14410
C         -0.21370        1.20730        0.27060
N          1.03440        0.72660        0.13680
C          2.28720        1.53520        0.10880
C          2.91140        1.43710       -1.29640
C          1.99720        2.12280       -2.33940
C          1.97400        3.63240       -2.06960
C          1.43080        3.91670       -0.66670
C          2.15420        3.07200        0.41930
Ni         2.65840       -1.88140       -0.01350
Br         1.85650       -1.76600       -2.41720
C          2.50070       -1.52680        2.10940
C          1.55780       -0.86730        2.80510
C          4.41590       -3.11990       -0.02500
N          4.78050       -3.91390       -0.99760
C          4.06780       -4.23980       -2.22470
C          4.88680       -3.82090       -3.45010
C          3.65170       -5.71240       -2.30650
C          6.02180       -4.60710       -0.71470
C          6.55850       -3.93970        0.52880
N          5.42530       -3.20510        1.01520
C          5.36920       -2.78110        2.39890
C          4.58450       -3.86790        3.18030
C          6.73050       -2.58910        3.08370
H         -0.46310       -2.89160       -0.83040
H         -0.13170       -2.92650        1.72370
H         -1.34520       -4.08650        1.09090
H         -2.09160       -1.35040        2.33850
H         -2.18820       -2.95450        3.14490
H         -4.42120       -2.36730        2.22200
H         -3.73970       -3.79310        1.37070
H         -3.77690       -0.87590        0.43800
H         -4.69790       -2.19480       -0.27010
H         -2.61070       -1.72500       -1.67890
H         -2.75570       -3.38220       -1.02700
H         -2.15590        0.32970        0.20720
H         -0.49810        2.22770        0.44290
H          2.97770        1.11100        0.86850
H          3.08390        0.38440       -1.54440
H          3.91020        1.92600       -1.32040
H          0.96410        1.70700       -2.30010
H          2.38820        1.94970       -3.36230
H          1.34430        4.15740       -2.82370
H          3.01000        4.02300       -2.16360
H          0.34930        3.72220       -0.68810
H          1.54300        5.00270       -0.44260
H          1.69640        3.24960        1.41500
H          3.19260        3.47370        0.46970
H          3.14990       -1.94150        2.80600
H          0.70400       -0.36100        2.39980
H          1.62230       -0.84960        3.89210
H          3.12890       -3.75300       -2.21140
H          5.81290       -4.42640       -3.53350
H          5.16840       -2.74960       -3.37730
H          4.30180       -3.97260       -4.38340
H          4.52570       -6.38990       -2.33800
H          3.05280       -5.86990       -3.23390
H          3.00450       -5.97040       -1.44150
H          6.78100       -4.55340       -1.51420
H          5.77500       -5.66990       -0.48980
H          7.35040       -3.20010        0.28080
H          6.93490       -4.71440        1.22930
H          5.02700       -1.73610        2.39550
H          5.15420       -4.82410        3.17540
H          3.60600       -4.09730        2.70350
H          4.41060       -3.56990        4.23490
H          7.30210       -3.53340        3.17150
H          6.55450       -2.19910        4.11340
H          7.32780       -1.83170        2.53450
