72

P          1.08500       -0.05120       -0.01220
C          0.24810        1.47090       -0.80310
C         -1.26280        1.62060       -1.02020
C          0.70840        2.79950       -0.14730
C          0.67020       -1.52850       -1.09130
C         -0.84100       -1.81800       -1.25920
C          1.30230       -1.47010       -2.47580
C          0.56360       -0.04410        1.80550
C          0.96190        1.18690        2.62360
C         -0.95240       -0.27650        2.03530
Ni         3.54500       -0.05120       -0.01220
Br         3.54500       -2.32520        1.22770
C          3.54500        1.83640       -1.04150
C          3.16100        2.01850       -2.30290
P          6.00500       -0.05120       -0.01220
C          6.96300        0.31030       -1.49740
C          6.20250        0.35820       -2.67970
C          6.79670        0.61490       -3.91060
C          8.17010        0.82540       -3.97980
C          8.94790        0.76330       -2.81370
C          8.35300        0.49560       -1.56710
C          6.22520        1.60150        0.73900
C          5.72980        1.71520        2.05420
C          5.92440        2.87490        2.80820
C          6.61960        3.95190        2.26270
C          7.10770        3.87290        0.95780
C          6.91460        2.71320        0.19450
C          6.55390       -1.63780        0.65450
C          6.27850       -2.83550       -0.00640
C          6.60990       -4.04820        0.60810
C          7.24390       -4.05360        1.85390
C          7.54080       -2.83700        2.47250
O          8.09880       -2.83280        3.56270
N          7.19570       -1.65410        1.86800
H          0.68350        1.46780       -1.82240
H         -1.82280        1.71920       -0.07890
H         -1.71370        0.86860       -1.66590
H         -1.43730        2.57320       -1.57040
H          0.06580        3.09320        0.69610
H          0.61750        3.63750       -0.87310
H          1.73970        2.79330        0.23110
H          1.08360       -2.41410       -0.56540
H         -1.34680       -1.09070       -1.90110
H         -1.38430       -1.90800       -0.31060
H         -0.99090       -2.78820       -1.77660
H          0.93850       -0.58860       -3.04110
H          1.01960       -2.38460       -3.04690
H          2.40590       -1.45000       -2.39010
H          1.08470       -0.90990        2.25650
H          0.30380        2.04700        2.42900
H          2.02530        1.45300        2.47460
H          0.79360        0.97240        3.70120
H         -1.57370        0.53410        1.62600
H         -1.18360       -0.31560        3.12320
H         -1.29680       -1.24000        1.63770
H          3.93960        2.68780       -0.49660
H          2.78250        1.20000       -2.90010
H          3.22190        3.01390       -2.73570
H          5.13480        0.18480       -2.65300
H          6.18690        0.65100       -4.80720
H          8.62860        1.03140       -4.93900
H         10.01360        0.92600       -2.88390
H          8.95810        0.44940       -0.67430
H          5.21170        0.88310        2.51500
H          5.55110        2.93090        3.82300
H          6.78640        4.84250        2.85580
H          7.65520        4.70910        0.54440
H          7.33270        2.71140       -0.79670
H          5.75690       -2.83620       -0.95310
H          6.36110       -4.98590        0.12390
H          7.48920       -4.99730        2.32710
H          7.38960       -0.75440        2.36400
