32

C          1.02400       -0.65300       -0.05500
N          1.01970        0.63570       -0.12520
C          2.19200        1.47890       -0.29880
C          2.37200        2.46870        0.86260
C         -0.31750        1.15850        0.07710
C         -1.20560       -0.07710       -0.05710
N         -0.28370       -1.15660        0.17850
C         -0.68690       -2.48820        0.60050
C         -0.30850       -3.57290       -0.39660
Ni         2.78020       -1.86970       -0.29550
Br         2.37100       -1.95510       -2.85150
C          3.11980       -1.79890        1.82630
C          2.36120       -1.14990        2.71320
C          4.53640       -3.08650       -0.53600
O          5.48060       -3.72360       -0.54220
H          2.07360        2.06650       -1.23340
H          3.11040        0.85910       -0.37530
H          1.50270        3.15690        0.95480
H          3.27080        3.09490        0.67330
H          2.51290        1.93200        1.82310
H         -0.61570        1.94170       -0.65130
H         -0.37150        1.55640        1.11580
H         -1.52050       -0.16580       -1.12240
H         -2.10040       -0.05190        0.59980
H         -1.79350       -2.51860        0.73070
H         -0.22760       -2.71140        1.58560
H         -0.82340       -3.40880       -1.36610
H         -0.63160       -4.55880        0.00720
H          0.78890       -3.59500       -0.54320
H          3.98360       -2.34190        2.19630
H          1.48360       -0.58720        2.43220
H          2.62590       -1.18260        3.76560
