87

C          0.90100       -0.64300       -0.00200
N         -0.34750       -1.10960        0.50380
C         -1.02830       -2.37100        1.02250
C         -0.13260       -3.59190        1.13420
C         -1.78590       -2.09980        2.36650
C         -2.14500       -2.83070        0.01180
C         -1.21520       -0.10540        0.35810
C         -0.65510        0.90250       -0.25000
N          0.62890        0.63740       -0.58470
C          1.28980        1.73870       -1.40490
C          0.46610        3.09650       -1.46100
C          2.65540        2.14680       -0.84160
C          1.32400        1.32430       -2.87810
Ni         2.65840       -1.88140       -0.01350
Br         2.82770       -1.61730       -2.58440
C          2.51790       -2.10070        2.12070
C          1.64390       -1.60930        2.99720
C          4.41590       -3.11990       -0.02500
N          5.78670       -2.83370       -0.53510
C          6.70450       -1.85760       -1.33610
C          8.10160       -1.46770       -1.05510
C          8.92650       -1.98650        0.08620
C          8.85850       -0.65320       -2.02550
C          8.27240       -0.21170       -3.23470
C          8.83360        0.54660       -4.41930
C          7.05170       -0.63010       -3.49160
C          6.40440       -1.47310       -2.63240
C          5.36110       -2.10440       -3.27110
C          6.49980       -3.90030       -0.21370
C          5.74460       -4.82740        0.36700
N          4.46020       -4.41830        0.51270
C          3.52110       -5.54410        0.67890
C          3.86600       -6.69350        1.51050
C          4.97270       -6.74510        2.54120
C          3.21410       -7.93230        1.30640
C          2.23950       -8.09420        0.33800
C          1.69050       -9.45290        0.00230
C          1.85000       -7.00850       -0.41820
C          2.46930       -5.75020       -0.28510
C          2.06110       -4.80160       -1.36790
H          0.73750       -3.52860        1.74870
H          0.18690       -3.82510        0.13200
H         -0.69060       -4.46070        1.54280
H         -1.16650       -1.62650        3.14280
H         -2.22930       -3.03140        2.77330
H         -2.65960       -1.42730        2.21510
H         -1.71760       -3.07860       -0.98460
H         -2.94090       -2.07560       -0.15680
H         -2.66740       -3.74230        0.38370
H         -2.26510       -0.08660        0.62080
H         -1.25770        1.76650       -0.45830
H          0.30670        3.54030       -0.45240
H         -0.52100        2.99040       -1.96900
H          0.98490        3.87120       -2.06890
H          2.53450        2.60530        0.16680
H          3.11910        2.91910       -1.49990
H          3.33990        1.28320       -0.77270
H          0.34230        0.86880       -3.14840
H          2.13840        0.66490       -3.09360
H          1.50110        2.17840       -3.56320
H          3.32590       -2.69440        2.53640
H          0.83040       -0.97700        2.70780
H          1.77090       -1.85630        4.05010
H          8.29830       -2.29570        0.93860
H          9.69660       -1.25220        0.39400
H          9.47810       -2.85990       -0.32220
H          9.89550       -0.39870       -1.87110
H          9.90490        0.76930       -4.35890
H          8.22760        1.46350       -4.63670
H          8.67720       -0.10570       -5.32460
H          6.57070       -0.36550       -4.44680
H          5.14950       -1.99580       -4.35130
H          4.97200       -1.16020       -2.87320
H          5.06980       -3.08870       -2.83120
H          7.53320       -4.08380       -0.46130
H          6.14390       -5.80980        0.54210
H          5.47380       -5.77760        2.71950
H          5.72890       -7.46600        2.21510
H          4.57340       -7.10440        3.50720
H          3.54020       -8.80320        1.86970
H          1.93980      -10.21160        0.77190
H          2.17530       -9.77550       -0.94820
H          0.59600       -9.42280       -0.17480
H          1.09480       -7.15590       -1.18220
H          2.38430       -5.21100       -2.34360
H          2.47410       -3.81810       -1.23230
H          0.96540       -4.72430       -1.47180
