45

C          0.90100       -0.64300       -0.00200
N         -0.35950       -1.14100        0.18440
C         -0.81260       -2.52390        0.43270
C         -1.63240       -2.57430        1.74140
C         -1.69280       -3.02580       -0.72140
C         -1.19790       -0.08440        0.15280
C         -0.47100        1.04500       -0.01850
N          0.83510        0.70960       -0.12180
C          1.88860        1.71590       -0.33170
C          1.56680        2.56520       -1.58400
C          1.97470        2.63540        0.89780
Ni         2.65840       -1.88140       -0.01350
Br         2.43680       -2.17220       -2.57760
C          2.84240       -1.64010        2.11500
C          1.91850       -1.01640        2.85560
N          4.37500       -3.09110       -0.02470
C          5.41460       -2.87910        0.86520
F          5.45950       -1.81550        1.69380
C          6.55460       -3.68870        0.87810
C          6.68280       -4.71630       -0.03720
F          7.79020       -5.49940       -0.04010
C          5.67280       -4.92350       -0.95950
C          4.52990       -4.11530       -0.94100
F          3.56620       -4.45560       -1.81770
H          0.06550       -3.19760        0.52840
H         -2.55070       -1.94670        1.66650
H         -1.03580       -2.20100        2.59740
H         -1.96870       -3.60960        1.96230
H         -2.58100       -2.37150       -0.86060
H         -2.05700       -4.05550       -0.50890
H         -1.11330       -3.04630       -1.66680
H         -2.27420       -0.13080        0.26750
H         -0.88010        2.04150       -0.06930
H          2.87220        1.21850       -0.46520
H          0.57540        3.06790       -1.48560
H          1.52680        1.92360       -2.48760
H          2.31530        3.36700       -1.73270
H          1.01300        3.16880        1.07040
H          2.77160        3.39560        0.75980
H          2.20860        2.03490        1.80010
H          3.62330       -2.07630        2.70860
H          1.02470       -0.57730        2.44530
H          2.02670       -0.97430        3.93450
H          7.35040       -3.49910        1.58810
H          5.76590       -5.72200       -1.68500
