49

P          1.08250       -0.04230       -0.03740
C          0.27200       -0.53550       -1.68660
C         -1.23930       -0.74240       -1.87630
C          0.71510        0.39300       -2.83290
C          0.71400       -1.42470        1.17090
C         -0.78570       -1.68940        1.43330
C          1.37640       -2.73590        0.80350
C          0.52030        1.72700        0.32370
C          0.92090        2.79790       -0.69890
C         -0.99010        1.87100        0.60260
Ni         3.54250       -0.04230       -0.03740
Br         3.29120        1.04460        2.20940
C          3.49210       -0.91270       -1.91140
C          3.95020       -0.22120       -2.96540
N          5.64250       -0.04230       -0.03740
C          6.51100       -0.74730       -0.87270
Cl         6.10910       -1.96680       -2.07300
C          7.91330       -0.65110       -0.71970
C          8.46100        0.13820        0.27700
C          7.61350        0.82060        1.11480
C          6.22420        0.71790        0.95030
H          0.74330       -1.51710       -1.89520
H         -1.81550        0.18800       -1.77680
H         -1.67690       -1.53540       -1.27290
H         -1.40900       -1.08680       -2.92510
H          0.04680        1.26280       -2.95330
H          0.66470       -0.13860       -3.80760
H          1.73170        0.79110       -2.70210
H          1.13350       -1.09240        2.14580
H         -1.28410       -2.18060        0.58950
H         -1.34480       -0.78750        1.72520
H         -0.90450       -2.40070        2.27310
H          1.01300       -3.11830       -0.17260
H          1.14280       -3.50680        1.57840
H          2.48520       -2.61900        0.77700
H          1.00770        2.01790        1.27020
H          0.28310        2.76730       -1.59630
H          1.99040        2.72340       -0.96500
H          0.72480        3.79960       -0.26830
H         -1.60690        1.62630       -0.27900
H         -1.23740        2.91820        0.87350
H         -1.30990        1.26760        1.46430
H          3.07170       -1.90400       -2.04920
H          4.37090        0.77440       -2.82090
H          3.93070       -0.64790       -3.96140
H          8.58200       -1.21760       -1.35370
H          9.53040        0.20430        0.40050
H          8.01650        1.43720        1.91100
H          5.67570        1.29040        1.64380
