55

C          2.32700        0.03400        0.00000
N          1.47410        1.12910       -0.07370
C          1.76630        2.56210       -0.17840
C          2.60910        3.05750        1.00080
C          2.37560        2.95700       -1.51340
C          0.22930        0.58780       -0.03680
C          0.31010       -0.76740        0.06990
C         -0.84090       -1.56510        0.15450
C         -2.09650       -0.94540        0.10260
C         -2.17760        0.45030       -0.02030
C         -1.02710        1.23930       -0.08410
N          1.61590       -1.14570        0.06830
C          2.06520       -2.54720        0.20440
C          1.45000       -3.50810       -0.81670
C          1.71510       -3.36220       -2.18460
C          1.15450       -4.22780       -3.13500
C          0.30840       -5.25650       -2.72200
C          0.02640       -5.42890       -1.36570
C          0.60160       -4.57040       -0.41640
Ni         4.47690        0.05800        0.00140
Br         3.93770       -0.57220        2.35030
C          4.36270       -0.35840       -2.01140
C          5.33900       -0.00960       -2.83840
O          6.52670        0.08100        0.00280
C          7.08490        0.35570        1.25620
C          8.61200        0.31740        1.09870
C          6.68020        1.75630        1.72310
H          0.82640        3.14420       -0.10850
H          3.62110        2.61370        0.94670
H          2.12350        2.77350        1.95730
H          2.69090        4.16470        0.96300
H          3.37840        2.50540       -1.65870
H          2.46080        4.06470       -1.57420
H          1.70010        2.63660       -2.34240
H         -0.81180       -2.62770        0.26280
H         -3.00390       -1.54860        0.15320
H         -3.16130        0.91480       -0.07000
H         -1.13050        2.30370       -0.18510
H          1.75630       -2.89540        1.22360
H          3.16900       -2.60510        0.16430
H          2.35420       -2.59500       -2.54510
H          1.38250       -4.09940       -4.17630
H         -0.12930       -5.92340       -3.45810
H         -0.63890       -6.22710       -1.05380
H          0.36360       -4.72440        0.62940
H          3.52560       -0.90720       -2.39080
H          6.16000        0.59330       -2.47350
H          5.28950       -0.28490       -3.88640
H          6.78610       -0.42240        1.98590
H          8.95480        1.11240        0.39720
H          8.93580       -0.66140        0.68690
H          9.11450        0.47540        2.07650
H          7.00250        2.52300        0.98320
H          7.15890        1.99000        2.69860
H          5.58460        1.82380        1.84500
