84

P          0.93190        0.06960        0.02290
C         -0.03920        1.71820       -0.53050
C         -1.58870        1.82960       -0.52340
C          0.40020        2.95640        0.32220
C          0.31500        2.05100       -1.99190
C          0.54120       -1.22100       -1.45600
C          1.22380       -0.88090       -2.80520
C          1.00790       -2.67780       -1.19180
C         -0.97210       -1.42400       -1.75650
C          0.15980       -0.28330        1.79070
C         -1.38790       -0.45700        1.73090
C          0.70910       -1.60170        2.35840
C          0.40390        0.74920        2.92000
Ni         3.39190        0.06960        0.02290
Br         3.39190       -2.42750        0.71020
C          3.39190        2.14250       -0.54770
C          3.25960        2.96570       -1.59100
P          5.85190        0.06960        0.02290
C          6.43590       -0.31010        1.68950
C          5.40770       -0.44790        2.65030
C          5.68610       -0.59310        4.00260
C          7.01100       -0.56380        4.43330
C          8.04880       -0.42420        3.50400
C          7.76980       -0.29080        2.12880
C          6.37800       -1.37880       -0.92180
C          5.46000       -2.10090       -1.70040
C          5.89820       -3.08520       -2.59240
C          7.26170       -3.33370       -2.74890
C          8.18740       -2.60010       -2.00550
C          7.74950       -1.63310       -1.09490
C          6.44770        1.80380       -0.15690
C          6.16610        2.47280       -1.48690
C          6.14090        3.88330       -1.52740
C          5.74940        4.55340       -2.69410
C          5.40650        3.82790       -3.83710
C          5.46480        2.43200       -3.82200
C          5.84060        1.75520       -2.65550
H         -2.03750        1.93390        0.46210
H         -2.11890        1.07770       -1.10970
H         -1.88630        2.79930       -0.99060
H         -0.00790        2.96850        1.32740
H          0.00390        3.90470       -0.10360
H          1.46500        3.12320        0.43800
H         -0.34730        1.52610       -2.70040
H          1.32400        1.74710       -2.22870
H          0.17550        3.12840       -2.24120
H          2.31800       -0.76940       -2.67560
H          0.82520       -0.02360       -3.34420
H          1.04880       -1.70050       -3.54110
H          2.08520       -2.79500       -1.34400
H          0.63350       -3.38160       -1.96900
H          0.63120       -3.10880       -0.25430
H         -1.46830       -0.53120       -2.13630
H         -1.52420       -1.89770       -0.92960
H         -1.12150       -2.15490       -2.58340
H         -1.74180       -1.00350        0.86080
H         -1.93090        0.48750        1.79470
H         -1.79260       -0.98660        2.61710
H          0.55650       -2.44830        1.68530
H          0.17760       -1.88390        3.29680
H          1.77220       -1.49000        2.63630
H         -0.16650        1.67540        2.80950
H          1.47620        0.95460        3.08830
H         -0.02980        0.36380        3.87410
H          3.57610        2.68750        0.37400
H          3.10710        2.67800       -2.61520
H          3.32660        4.03630       -1.37740
H          4.37390       -0.41230        2.35330
H          4.87930       -0.67360        4.71760
H          7.22650       -0.64670        5.49340
H          9.06900       -0.38050        3.85580
H          8.58200       -0.12660        1.43960
H          4.40820       -1.87080       -1.66950
H          5.17600       -3.62170       -3.19450
H          7.60320       -4.06590       -3.47240
H          9.24760       -2.75450       -2.16130
H          8.48990       -1.04440       -0.58030
H          7.53700        1.86630        0.03650
H          5.93680        2.37060        0.65240
H          6.36090        4.46480       -0.63950
H          5.68230        5.63490       -2.70110
H          5.07720        4.34450       -4.72920
H          5.18590        1.86870       -4.70210
H          5.83330        0.67670       -2.67310
