75

C          1.02400       -0.65300       -0.05500
N          0.95120        0.64540        0.11700
C          2.00220        1.60330        0.47260
C          3.36220        1.58400       -0.02210
C          3.83680        0.78090       -1.17590
C          4.34400        2.44640        0.49810
C          4.03180        3.37570        1.48310
C          5.06810        4.26110        2.09640
C          2.72600        3.47970        1.91890
C          1.71560        2.63800        1.44280
C          0.36920        2.88970        2.06410
C         -0.45660        1.02430        0.00430
C         -1.15280       -0.16250       -0.59510
N         -0.30730       -1.25980       -0.23040
C         -0.78650       -2.57130        0.26840
C         -0.04750       -3.77970        0.00490
C          1.09160       -3.83750       -0.90290
C         -0.44350       -5.02220        0.50040
C         -1.58650       -5.16160        1.25850
C         -1.99670       -6.51100        1.77310
C         -2.36390       -4.04280        1.51270
C         -2.00980       -2.75670        1.03820
C         -3.00010       -1.67990        1.42480
Ni         2.78020       -1.86970       -0.29550
Br         2.98210       -2.08680        2.27750
C          2.61260       -1.68950       -2.43130
C          1.62190       -1.04700       -3.07010
N          4.49560       -3.05820       -0.53040
C          5.13170       -3.18460       -1.73960
C          6.19230       -4.03950       -1.97500
C          6.68260       -4.87890       -0.97630
N          7.71720       -5.86320       -1.26310
C          8.39860       -5.96690       -2.55560
C          8.11820       -6.89020       -0.31290
C          6.09200       -4.70730        0.29850
C          5.04370       -3.78290        0.50260
H          2.96230        0.52890       -1.75020
H          4.51500       -0.04220       -0.87030
H          4.39070        1.43340       -1.89220
H          5.35940        2.41340        0.12010
H          6.07610        4.07380        1.67020
H          5.10260        4.05150        3.18610
H          4.79730        5.32690        1.94120
H          2.50100        4.22730        2.66810
H          0.36720        3.71360        2.80510
H          0.05450        1.98290        2.61660
H         -0.35430        3.21590        1.28600
H         -0.62560        1.90410       -0.66110
H         -0.92510        1.11590        0.99030
H         -1.10780       -0.09670       -1.70160
H         -2.21900       -0.19020       -0.38520
H          1.03120       -2.91550       -1.42140
H          0.93130       -4.58980       -1.70430
H          2.03270       -4.04950       -0.36080
H          0.14460       -5.90420        0.26130
H         -1.26920       -7.30000        1.48260
H         -2.99090       -6.78720        1.36210
H         -2.05070       -6.47810        2.88030
H         -3.27110       -4.19250        2.08770
H         -3.78960       -2.05670        2.11270
H         -3.59070       -1.35840        0.54540
H         -2.49500       -0.84530        1.94800
H          3.22800       -2.11930       -3.17790
H          0.84380       -0.51850       -2.56220
H          1.59860       -1.02580       -4.15800
H          4.93810       -2.59460       -2.57820
H          6.57020       -4.01350       -2.97880
H          8.13640       -5.21140       -3.30720
H          8.18090       -6.95500       -3.01570
H          9.49410       -5.87290       -2.41090
H          7.58690       -6.86680        0.64800
H          9.20570       -6.80410       -0.10640
H          7.91890       -7.89220       -0.75280
H          6.38960       -5.27960        1.15940
H          4.63900       -3.78140        1.48780
