58

P          0.98430        0.09810        0.01130
C         -0.00920       -1.62510        0.23390
C         -1.56230       -1.69140        0.21980
C          0.37370       -2.68660       -0.85110
C          0.37350       -2.28260        1.58110
C          0.63020        1.04610        1.72660
C          1.33720        0.42110        2.95670
C          1.10740        2.52140        1.76580
C         -0.87570        1.18400        2.07660
C          0.23900        0.80330       -1.65410
C         -1.30830        0.99220       -1.58350
C          0.79790        2.19200       -1.93790
C          0.50150       -0.01950       -2.94370
Ni         3.44430        0.09810        0.01130
Br         3.44430        2.68220       -0.16310
C          3.44430       -2.04700        0.15600
C          3.63690       -2.89860        1.16390
N          5.54430        0.09810        0.01130
C          6.25540       -0.99550       -0.44680
F          5.66440       -2.06420       -1.01730
C          7.65200       -0.99310       -0.50000
C          8.35810        0.09480       -0.02090
F          9.71270        0.08890       -0.04580
C          7.65890        1.17070        0.48560
C          6.27700        1.18220        0.46210
F          5.69460        2.22810        1.08550
H         -2.01040       -1.60220       -0.77000
H         -2.08300       -1.04700        0.92720
H         -1.88730       -2.72250        0.49780
H         -0.02470       -2.48860       -1.84050
H         -0.06830       -3.68090       -0.61920
H          1.42010       -2.89780       -0.96870
H         -0.24300       -1.88320        2.40230
H          1.43040       -2.16820        1.82440
H          0.14610       -3.37220        1.60760
H          2.42560        0.32680        2.77520
H          0.94920       -0.53080        3.30880
H          1.19220        1.06990        3.85220
H          2.18600        2.59240        1.94830
H          0.73480        3.05850        2.66780
H          0.74490        3.13120        0.92540
H         -1.35740        0.23140        2.29290
H         -1.43590        1.78610        1.34390
H         -1.01740        1.74500        3.02800
H         -1.65600        1.45160       -0.65490
H         -1.86810        0.07970       -1.77850
H         -1.67200        1.63640       -2.40130
H          0.59980        2.90860       -1.12970
H          0.31490        2.64870       -2.83730
H          1.86880        2.13780       -2.19150
H         -0.09030       -0.91850       -3.02700
H          1.57740       -0.20520       -3.10280
H          0.12230        0.56170       -3.82720
H          3.36370       -2.48350       -0.82850
H          3.79030       -2.59460        2.18730
H          3.63070       -3.96300        0.91830
H          8.18620       -1.83430       -0.92440
H          8.20350        2.01730        0.90740
