47

C          1.02400       -0.65300       -0.05500
N          1.01700        0.65230        0.04250
C          2.13070        1.61260        0.13630
C          3.51630        0.99750        0.31130
C          2.13400        2.58200       -1.05910
C         -0.34310        1.14250        0.17960
C         -1.20950       -0.04940       -0.17650
N         -0.30780       -1.16150       -0.02240
C         -0.71110       -2.43480        0.54680
C         -1.23880       -2.24980        1.97840
C         -1.81130       -3.07290       -0.32380
Ni         2.78020       -1.86970       -0.29550
Br         3.04010       -2.00320        2.27800
C          2.56440       -1.75890       -2.43180
C          1.81910       -0.82650       -3.03000
N          4.49560       -3.05820       -0.53040
C          4.99230       -3.80090        0.51600
C          6.14790       -4.58150        0.39070
Cl         6.72850       -5.52850        1.75170
C          6.83300       -4.60980       -0.81260
C          6.35670       -3.85480       -1.87210
C          5.19740       -3.09180       -1.71420
H          1.95880        2.22490        1.05130
H          3.78990        0.34390       -0.53850
H          3.55920        0.45040        1.26790
H          4.26730        1.81590        0.39270
H          2.35770        2.04860       -2.00450
H          2.90450        3.36840       -0.90580
H          1.16650        3.11230       -1.16530
H         -0.60130        1.98960       -0.48900
H         -0.48670        1.44330        1.24170
H         -1.43080        0.00830       -1.26800
H         -2.16660       -0.08780        0.38070
H          0.16440       -3.11920        0.57990
H         -2.15300       -1.61910        2.00360
H         -0.46790       -1.76410        2.60960
H         -1.50250       -3.22900        2.42980
H         -2.71130       -2.41730       -0.35730
H         -2.12090       -4.05330        0.09720
H         -1.44770       -3.22430       -1.36210
H          3.04620       -2.44520       -3.10650
H          1.30650       -0.05560       -2.47900
H          1.75180       -0.79680       -4.11260
H          4.50510       -3.85390        1.46280
H          7.73180       -5.20230       -0.92380
H          6.89170       -3.84550       -2.81410
H          4.94970       -2.49370       -2.56040
