50

C         -0.30560       -1.23360       -0.01390
N          0.78600       -0.39980       -0.24630
C          2.14510       -0.71610       -0.69770
C          0.34910        0.88970       -0.06160
C          1.11690        2.20080       -0.21190
C         -0.96350        0.84980        0.31240
C         -1.82110        2.04210        0.67590
N         -1.36770       -0.44040        0.32510
C         -2.68730       -0.86090        0.76720
Ni        -0.49020       -3.48260       -0.01010
Br         1.35580       -3.75150        1.78670
C         -2.02250       -3.25950       -1.50150
C         -2.69170       -4.27390       -2.05490
C         -0.75790       -5.57690        0.03550
N          0.11170       -6.46080       -0.50280
C          1.30840       -6.19610       -1.28770
C         -0.42010       -7.68260       -0.32390
C         -1.60130       -7.54370        0.35580
N         -1.82570       -6.22770        0.58010
C         -2.95300       -5.68310        1.30780
C         -3.90610       -6.52970        1.92010
C         -5.04760       -5.99980        2.52470
C         -5.25450       -4.62260        2.53810
C         -4.28870       -3.77240        2.00690
C         -3.13760       -4.29870        1.41450
H          2.28750       -1.80070       -0.85670
H          2.89940       -0.32930        0.02240
H          2.33390       -0.19510       -1.66830
H          2.16970        2.09900       -0.53880
H          1.11080        2.76520        0.74990
H          0.59550        2.85070       -0.95240
H         -1.28830        3.01240        0.58840
H         -2.15810        1.95140        1.73010
H         -2.70290        2.07970        0.00580
H         -3.30780        0.00210        1.08610
H         -2.56350       -1.49220        1.66490
H         -3.23250       -1.36660       -0.04280
H         -2.26670       -2.25620       -1.83010
H         -2.51080       -5.30360       -1.78750
H         -3.45560       -4.07310       -2.79850
H          1.46320       -5.10630       -1.41690
H          1.17990       -6.64700       -2.30180
H          2.18510       -6.66630       -0.80500
H         -0.00100       -8.61230       -0.68810
H         -2.24540       -8.36230        0.64250
H         -3.79470       -7.60260        1.92980
H         -5.78160       -6.66180        2.96440
H         -6.15780       -4.21190        2.96710
H         -4.44660       -2.70500        2.04160
H         -2.40770       -3.62770        1.01620
