64

C          1.02400       -0.65300       -0.05500
N          0.96790        0.67400       -0.38530
C          1.91860        1.76070       -0.75850
C          1.55660        2.94250       -1.55540
C          0.29570        3.15230       -2.37050
C          2.42560        4.06980       -1.62940
C          3.65030        4.09220       -0.96690
C          4.56660        5.27160       -0.90580
C          4.04370        2.97270       -0.29160
C          3.20610        1.86980       -0.18370
C          3.68530        0.86980        0.65270
C         -0.30910        1.17610        0.02970
C         -1.20950        0.01810        0.07080
N         -0.36160       -1.13240        0.20660
C         -1.00430       -2.40330        0.61660
C         -0.28340       -3.62450        0.68630
C          1.01780       -3.77520        0.05670
C         -0.80150       -4.77590        1.27190
C         -2.07700       -4.80090        1.78510
C         -2.56320       -5.99460        2.54300
C         -2.90570       -3.71500        1.56500
C         -2.43520       -2.52780        0.96440
C         -3.56550       -1.51950        0.72660
Ni         2.78020       -1.86970       -0.29550
Br         3.44190       -1.40080        2.16430
C          2.23090       -2.25900       -2.33740
C          1.42070       -1.48160       -3.05850
N          4.49560       -3.05820       -0.53040
C          4.87160       -3.88300       -1.53880
O          6.03680       -4.44340       -1.30370
C          6.45770       -4.00720       -0.14440
C          5.51240       -3.14500        0.35330
H         -0.35350        2.26790       -2.48930
H          0.57430        3.43330       -3.41080
H         -0.27890        4.00900       -1.94530
H          2.13600        4.95550       -2.18140
H          4.16460        6.14210       -1.45250
H          5.56730        4.99320       -1.29960
H          4.68780        5.55110        0.16780
H          4.99680        2.99400        0.22970
H          4.67310        1.03330        1.12790
H          3.75720       -0.01480       -0.00110
H          2.90390        0.89390        1.44610
H         -0.79250        2.01610       -0.49900
H         -0.15590        1.58510        1.06100
H         -1.77780       -0.07320       -0.88120
H         -1.81680        0.23270        0.95200
H          0.79980       -3.43120       -0.96160
H          1.34000       -4.82650       -0.08420
H          1.74320       -3.25820        0.67970
H         -0.18560       -5.66400        1.34490
H         -1.75080       -6.74180        2.67570
H         -3.42320       -6.46730        2.03220
H         -2.86730       -5.65630        3.55780
H         -3.93540       -3.79830        1.89640
H         -4.57210       -1.94980        0.92820
H         -3.61410       -1.25380       -0.35260
H         -3.56090       -0.63350        1.37970
H          2.62520       -3.10370       -2.86420
H          0.98260       -0.57640       -2.66830
H          1.21510       -1.74740       -4.09260
H          4.33220       -4.09460       -2.43750
H          7.39280       -4.28510        0.32320
H          5.59830       -2.62790        1.29150
