39

C         -0.18800       -1.35400       -0.00200
N         -1.11980       -0.36990        0.05030
C         -2.57160       -0.53060        0.03280
C         -0.43470        0.79460        0.02780
C         -1.01790        2.17680        0.03500
C          0.92210        0.50200       -0.00430
C          2.05540        1.49010        0.00130
N          1.06330       -0.83450       -0.04100
C          2.29770       -1.61330       -0.05710
Ni        -0.49020       -3.48260       -0.01010
Br        -0.51690       -3.46900       -2.59990
C         -0.46790       -3.49390        2.13980
C         -0.95730       -2.50250        2.88160
O         -0.77830       -5.51230       -0.01770
C         -2.14110       -5.81410       -0.11910
C         -2.26950       -7.33830       -0.17150
C         -2.95310       -5.23700        1.03190
H         -2.84910       -1.60350        0.00140
H         -2.98000       -0.03620       -0.88080
H         -3.01030       -0.05030        0.92670
H         -2.12530        2.15390        0.04430
H         -0.68530        2.72030       -0.87540
H         -0.66670        2.73070        0.93090
H          1.69030        2.53660        0.02570
H          2.67440        1.35430       -0.91090
H          2.68310        1.31980        0.90080
H          3.18430       -0.94520        0.00750
H          2.36210       -2.22230       -0.96720
H          2.31820       -2.27460        0.84290
H         -0.17000       -4.40970        2.64020
H         -1.39440       -1.62460        2.42820
H         -1.00780       -2.61930        3.96060
H         -2.52470       -5.40890       -1.08060
H         -1.87670       -7.79270        0.76390
H         -1.67740       -7.73600       -1.02520
H         -3.32770       -7.64370       -0.30940
H         -2.58400       -5.62400        2.00440
H         -4.02110       -5.52160        0.91080
H         -2.89180       -4.13020        1.01700
