67

C          1.02400       -0.65300       -0.05500
N          1.00040        0.65380       -0.36350
C          2.05980        1.68240       -0.73730
C          1.77010        2.92160       -1.45790
C          0.52250        3.24130       -2.22570
C          2.71990        3.99120       -1.53260
C          3.98100        3.89910       -0.96510
C          4.99600        5.01140       -0.91370
C          4.33280        2.72530       -0.39220
C          3.43220        1.66590       -0.27720
C          4.00930        0.63000        0.48370
C         -0.31040        1.12000        0.01920
C         -1.14890       -0.12310        0.21010
N         -0.22420       -1.19200        0.51030
C         -0.70600       -2.55580        0.95100
C          0.00340       -3.81580        0.76340
C          1.37470       -3.98200        0.27680
C         -0.56040       -5.07230        1.09830
C         -1.78640       -5.18130        1.71870
C         -2.34020       -6.53920        2.08320
C         -2.46990       -4.02050        2.01890
C         -1.97870       -2.73910        1.66490
C         -2.87140       -1.62910        2.16050
Ni         2.78020       -1.86970       -0.29550
Br         3.39750       -1.46950        2.18780
C          2.26780       -2.20190       -2.35690
C          1.15040       -1.72710       -2.91930
N          4.49560       -3.05820       -0.53040
C          4.63000       -3.98690       -1.56210
F          3.60550       -4.40840       -2.32490
C          5.75900       -4.79660       -1.71660
C          6.82790       -4.66810       -0.86320
F          7.93750       -5.43090       -1.02190
C          6.73820       -3.76470        0.16890
C          5.57630       -3.00590        0.34850
F          5.72070       -2.08390        1.30980
H         -0.14100        2.38880       -2.40880
H          0.83080        3.53110       -3.25410
H          0.00540        4.11210       -1.76750
H          2.46980        4.91850       -2.03120
H          4.63880        5.93730       -1.39940
H          5.95390        4.68480       -1.37620
H          5.21220        5.24150        0.15720
H          5.33480        2.66980        0.03590
H          5.07010        0.72240        0.81490
H          3.99120       -0.26600       -0.14250
H          3.39130        0.78530        1.38550
H         -0.86440        1.78480       -0.64670
H         -0.18370        1.64960        0.99080
H         -1.66300       -0.39960       -0.74280
H         -1.87360        0.18690        0.96640
H          1.93780       -3.22350        0.76180
H          1.44190       -4.29980       -0.78480
H          1.87780       -4.80450        0.85280
H         -0.01250       -5.99010        0.92200
H         -1.67910       -7.36400        1.73500
H         -3.33630       -6.69360        1.61030
H         -2.44360       -6.63050        3.18270
H         -3.41440       -4.13120        2.54030
H         -3.66790       -1.98670        2.84850
H         -3.41670       -1.15530        1.32210
H         -2.26870       -0.92810        2.77720
H          2.90680       -2.64490       -3.08910
H          0.39210       -1.18710       -2.37740
H          0.97940       -1.87640       -3.98210
H          5.78300       -5.55340       -2.49150
H          7.58300       -3.63080        0.83370
