29

C         -0.11990       -1.13480        0.01460
N         -1.09980       -0.13540       -0.05870
C         -2.56300       -0.09030       -0.02400
C         -0.47890        1.06890       -0.03720
Cl        -1.24200        2.67080       -0.02300
C          0.84490        0.89300        0.00230
Cl         1.99230        2.25550        0.01200
N          1.12080       -0.43690        0.03060
C          2.55000       -0.80520       -0.08480
Ni        -0.49020       -3.48260       -0.01010
Br        -2.71760       -3.17980       -1.29650
C          1.35890       -3.73400        1.05780
C          1.84520       -2.85460        1.90830
C         -0.74110       -5.56680        0.01980
N          0.17110       -6.44860        0.44310
C         -0.42560       -7.64290        0.27530
C         -1.67860       -7.43780       -0.25320
O         -1.84090       -6.14790       -0.41790
H         -3.04000       -1.05540        0.11550
H         -2.95010        0.44030       -0.92640
H         -2.88040        0.53360        0.84970
H          3.17770        0.07390       -0.37330
H          2.74270       -1.47970       -0.93860
H          3.01430       -0.99200        0.89400
H          1.87060       -4.68680        0.99050
H          1.30450       -1.94040        2.09460
H          2.76380       -3.08050        2.44200
H          0.01900       -8.59920        0.52220
H         -2.41240       -8.19470       -0.49550
