58

C          2.32700        0.03400        0.00000
N          1.51210        1.10880        0.20860
C          1.90570        2.49990        0.50680
C          2.89400        3.13790       -0.48160
C          2.35380        3.35300       -1.90080
C          3.41910        4.03810       -2.76400
C          0.25150        0.62660        0.10270
C          0.32100       -0.73200       -0.11620
C         -0.84080       -1.51710       -0.22260
C         -2.08400       -0.87450       -0.14210
C         -2.14840        0.52050        0.06520
C         -0.97710        1.28990        0.18650
N          1.60890       -1.11630       -0.18970
C          2.11800       -2.48450       -0.40300
C          2.86670       -3.08060        0.80570
C          1.98850       -3.19180        2.06580
C          2.72010       -3.89800        3.21240
Ni         4.47690        0.05800        0.00140
Br         4.47790       -0.18860        2.57970
C          4.47600        0.26280       -2.13880
C          3.38180        0.10020       -2.88930
N          6.57670        0.08150        0.00280
C          6.99230       -0.56250       -1.27570
N          7.23450       -0.38380        1.12020
C          8.37930        0.15390        1.28800
C          8.48220        1.25220        0.46780
C          7.28140        1.29740       -0.24420
H          2.39520        2.50040        1.50090
H          1.00970        3.15500        0.58400
H          3.81890        2.52720       -0.51280
H          3.15790        4.13910       -0.07230
H          1.44680        3.99550       -1.87630
H          2.08110        2.38260       -2.35780
H          3.67330        5.03710       -2.34580
H          3.04740        4.17740       -3.80050
H          4.34480        3.42360       -2.79990
H         -0.80780       -2.58730       -0.37960
H         -2.99560       -1.45190       -0.20850
H         -3.11940        1.00310        0.13230
H         -1.04690        2.35210        0.33830
H          2.78040       -2.48720       -1.29200
H          1.28160       -3.17850       -0.62940
H          3.77980       -2.49020        1.02200
H          3.18760       -4.10660        0.52100
H          1.07270       -3.77700        1.83360
H          1.68630       -2.17690        2.40560
H          3.00810       -4.93040        2.91700
H          2.05190       -3.96870        4.09820
H          3.63300       -3.33810        3.50510
H          5.33810        0.57630       -2.70090
H          2.42080       -0.16580       -2.48130
H          3.43120        0.26470       -3.96080
H          6.25050       -1.33280       -1.56520
H          7.89070       -1.19630       -1.11190
H          7.28570        0.06530       -2.16540
H          9.08970       -0.18930        2.03150
H          9.30400        1.95350        0.44780
H          7.00220        2.07700       -0.94020
