85

N         -1.39000       -0.11200       -0.05400
C         -0.70700       -1.15760        0.49680
C          0.66850       -1.04660        0.75150
C          1.34420        0.11990        0.38950
C          0.64420        1.16020       -0.21650
C         -0.73270        1.03180       -0.41600
Ni        -3.47560       -0.20170       -0.28210
Br        -3.22630       -2.34120       -1.72030
C         -3.68260        1.57430        0.91180
C         -2.69620        1.55860        1.85100
C         -5.61100       -0.29360       -0.51560
N         -6.20260        1.00500       -0.59590
C         -5.80330        2.64180       -0.81490
C         -6.77320        3.46090       -1.68330
C         -7.93770        3.14930       -2.62370
C         -7.46310        3.05630       -4.08070
C         -8.98530        2.14640       -2.35870
C         -6.57270        4.87320       -1.91410
C         -5.58090        5.65050       -1.50690
C         -4.64340        5.10150       -0.79940
C         -4.61510        3.78350       -0.34250
C         -3.36990        3.96790        0.71220
C         -1.83290        4.31380        1.09500
C         -4.17890        4.17790        2.06970
C         -7.55510        0.47020       -0.44440
C         -7.64950       -0.90150       -1.14600
N         -6.42060       -1.53270       -0.82940
C         -6.32240       -2.89670       -0.15780
C         -5.61460       -4.06780       -0.71850
C         -5.14570       -4.28240       -2.19680
C         -4.25960       -5.36180       -2.94850
C         -5.54780       -3.12400       -3.20740
C         -5.27750       -5.16170        0.14910
C         -5.76770       -5.28190        1.42110
C         -6.73550       -4.39920        1.81830
C         -7.05900       -3.24380        1.06450
C         -8.37220       -2.57690        1.44470
C         -9.47190       -3.27370        0.58120
C         -8.85600       -2.66200        2.89990
H         -1.23590       -2.04870        0.80420
H          1.20810       -1.84910        1.23800
H          2.40660        0.22050        0.57940
H          1.16120        2.06360       -0.51560
H         -1.27800        1.84040       -0.87830
H         -4.63840        1.95050        1.18820
H         -1.82680        0.94170        1.85910
H         -2.77000        2.04680        2.79990
H         -8.63890        4.02880       -2.59430
H         -6.78460        2.18820       -4.20780
H         -6.93440        3.98480       -4.39460
H         -8.33930        2.94010       -4.75250
H         -8.54430        1.16290       -2.58650
H         -9.84730        2.24870       -3.04030
H         -9.39910        2.41160       -1.36270
H         -7.24870        5.49060       -2.48170
H         -5.51570        6.70430       -1.71000
H         -3.87670        5.82680       -0.51140
H         -2.84000        3.32160       -0.01980
H         -1.66070        5.24090        1.67360
H         -1.02930        4.19390        0.31590
H         -1.41770        3.57930        1.84010
H         -4.32910        5.25170        2.25660
H         -3.74200        3.78070        3.00500
H         -5.20450        3.75290        2.04130
H         -8.47850        0.97360       -0.46100
H         -7.65450        0.32340        0.64820
H         -7.70150       -0.84900       -2.24890
H         -8.53550       -1.44560       -0.85030
H         -4.19980       -4.35590       -1.71110
H         -4.75910       -5.73760       -3.84960
H         -3.88790       -6.23820       -2.34750
H         -3.30340       -4.89410       -3.37560
H         -6.63420       -3.07630       -3.37740
H         -4.95470       -3.17880       -4.14850
H         -5.36980       -2.07330       -2.90640
H         -4.60490       -5.96070       -0.16900
H         -5.50080       -6.13850        2.03690
H         -7.25140       -4.66930        2.72730
H         -8.26880       -1.51690        1.27460
H         -9.60970       -4.33510        0.89320
H         -9.23050       -3.36000       -0.50200
H        -10.44550       -2.75280        0.67690
H         -9.14550       -3.69480        3.19430
H         -9.77660       -2.04290        2.98600
H         -8.09400       -2.26290        3.59490
