36

N         -1.42900       -0.05320       -0.07580
C         -0.76840        1.08450       -0.44040
C          0.63200        1.13690       -0.41830
C          1.37160       -0.00130       -0.07840
C          2.87150        0.00250       -0.19250
C          0.69100       -1.15410        0.31950
C         -0.71150       -1.15790        0.31080
Ni        -3.47560       -0.20170       -0.28210
Br        -3.22560        0.37400       -2.79490
C         -3.68320       -0.67970        1.80380
C         -2.65130       -0.81530        2.64350
N         -5.51600       -0.28690       -0.52230
C         -6.22620       -1.30130        0.07420
C         -7.56830       -1.53200       -0.27160
C         -8.24180       -0.62560       -1.10210
O         -9.54680       -0.80050       -1.45470
C        -10.29690       -1.92170       -1.14000
C         -7.53220        0.47740       -1.58740
C         -6.15380        0.57740       -1.35600
H         -1.33140        1.97550       -0.68500
H          1.13950        2.05130       -0.68560
H          3.24210        0.97600       -0.58050
H          3.17330       -0.77470       -0.93000
H          3.35960       -0.20980        0.77940
H          1.24210       -2.04970        0.59640
H         -1.22410       -2.08330        0.54010
H         -4.67450       -0.75230        2.23570
H         -1.63770       -0.65380        2.35900
H         -2.78800       -1.02410        3.69150
H         -5.74310       -2.05230        0.68720
H         -8.07730       -2.41950        0.08930
H        -11.33250       -1.82310       -1.52480
H        -10.34570       -2.04160       -0.03810
H         -9.83860       -2.83000       -1.59360
H         -8.02690        1.24180       -2.17100
H         -5.60420        1.40990       -1.76010
