35

P          1.04610       -0.06310       -0.06240
O         -0.35170        0.69330       -0.69070
C         -0.07060        2.09290       -0.71610
O          0.71620       -1.62480       -0.67150
C          0.81750       -1.63690       -2.07340
O          0.72700        0.38770        1.56450
C         -0.62720        0.08290        1.87300
Ni         3.50610       -0.06310       -0.06240
Br         3.50610       -1.98970        1.66860
C          3.50610        1.53620       -1.49930
C          3.63830        2.80930       -1.13620
N          5.60610       -0.06310       -0.06240
C          6.18670       -1.14590        0.71900
N          6.16050        0.03180       -1.33100
C          7.06690        0.93250       -1.45690
C          7.10450        1.68740       -0.33870
C          6.12580        1.15860        0.46530
H         -0.53690        2.55940       -1.60570
H          1.00500        2.36480       -0.79920
H         -0.46160        2.58580        0.19840
H          0.11930       -2.41380       -2.45280
H          1.84700       -1.91680       -2.37370
H          0.49970       -0.69250       -2.56730
H         -0.77390        0.10640        2.96940
H         -0.93810       -0.92610        1.51770
H         -1.32350        0.85280        1.47160
H          3.40280        1.28380       -2.54940
H          3.74380        3.07420       -0.09110
H          3.63740        3.58860       -1.89260
H          5.87880       -2.12570        0.29510
H          5.92120       -1.05100        1.79050
H          7.30270       -1.11020        0.67360
H          7.65500        1.06470       -2.35830
H          7.72980        2.55200       -0.13920
H          5.86240        1.55270        1.43480
