29

N         -1.44930       -0.03500       -0.06740
C         -0.90030        0.89630        0.76840
C          0.49330        1.06020        0.84340
C          1.32270        0.29620        0.02290
F          2.67000        0.47400        0.05310
C          0.75570       -0.64110       -0.83870
C         -0.64030       -0.79930       -0.86510
Ni        -3.47560       -0.20170       -0.28210
Br        -3.34230        1.54540       -2.18940
C         -3.58640       -1.65200        1.30130
C         -2.53410       -2.04830        2.02330
N         -5.52710       -0.29680       -0.48580
C         -6.18060       -1.49750       -0.36090
F         -5.50710       -2.66490       -0.24930
C         -7.56000       -1.59390       -0.52420
C         -8.30180       -0.45430       -0.78960
F         -9.64580       -0.53830       -0.93930
C         -7.65220        0.76700       -0.91930
C         -6.26050        0.82930       -0.78930
F         -5.68520        2.05030       -0.85910
H         -1.53780        1.49070        1.40480
H          0.93150        1.78230        1.52170
H          1.39730       -1.22600       -1.48950
H         -1.07050       -1.50460       -1.56200
H         -4.50390       -2.14510        1.56980
H         -1.53230       -1.68470        1.85000
H         -2.67070       -2.81430        2.78480
H         -8.04260       -2.56120       -0.46650
H         -8.22400        1.66480       -1.11430
