23

N         -1.39000       -0.11200       -0.05400
C         -0.81170        1.10160        0.15710
C          0.58570        1.22850        0.14100
C          1.24840        2.57060        0.22430
C          1.36660        0.07700       -0.01170
C          0.75080       -1.16270       -0.20050
C         -0.64200       -1.23030       -0.25740
Ni        -3.47560       -0.20170       -0.28210
Br        -3.74190       -0.51290        2.27530
C         -3.25460        0.05660       -2.40500
C         -2.09180        0.08810       -3.05850
C         -5.61100       -0.29360       -0.51560
O         -6.82070       -0.34570       -0.64790
H         -1.44140        1.97630        0.24710
H          0.50130        3.39010        0.28200
H          1.84970        2.73060       -0.69940
H          1.91890        2.62020        1.10410
H          2.44670        0.13780       -0.01540
H          1.34690       -2.05770       -0.33130
H         -1.13250       -2.17740       -0.43960
H         -4.16760        0.17400       -2.98000
H         -1.14170       -0.01450       -2.55870
H         -2.08740        0.22720       -4.13500
