35

N          1.14300       -0.69700        0.08900
C         -0.05240       -1.35120        0.30060
C         -0.11170       -2.76450        0.80720
C         -1.27090       -0.67190        0.16000
C         -1.27850        0.67140       -0.18240
C         -0.07780        1.33050       -0.39170
C          1.13760        0.64140       -0.24930
C          2.40090        1.37820       -0.62020
Ni         2.95390       -1.70510        0.42730
Br         3.60340        0.05940        2.20850
C          2.41470       -3.16980       -1.05140
C          1.33980       -3.15200       -1.84810
N          4.76480       -2.71320        0.76550
C          5.90500       -2.01080        1.08920
F          5.93530       -0.66280        1.09620
C          7.12330       -2.65740        1.31270
C          7.19680       -4.03850        1.23090
F          8.37170       -4.67760        1.45550
C          6.05360       -4.75950        0.92780
C          4.84910       -4.08890        0.69380
F          3.75340       -4.86730        0.54420
H          0.89290       -3.18510        0.99110
H         -0.67070       -3.40400        0.09120
H         -0.65030       -2.78200        1.77860
H         -2.21200       -1.17470        0.34840
H         -2.21520        1.20510       -0.28130
H         -0.09840        2.37580       -0.67630
H          2.18150        2.40800       -0.97500
H          2.89830        0.83990       -1.45390
H          3.11360        1.50890        0.19470
H          3.08580       -3.97580       -1.28760
H          0.59170       -2.38020       -1.83180
H          1.21030       -3.93810       -2.58650
H          8.01200       -2.08130        1.53840
H          6.09310       -5.84030        0.89050
