71

P          0.92870       -0.06550        0.02500
O         -0.22760       -1.27790        0.47220
C          0.12440       -2.45850       -0.26900
C         -0.51740       -3.74510        0.22170
O          0.44600        1.17810        1.09660
C          0.51460        0.77520        2.43850
C         -0.27490        1.78820        3.26630
O          0.43200       -0.03450       -1.62960
C         -0.99170        0.15770       -1.67880
C         -1.54460       -0.10920       -3.06870
Ni         3.38870       -0.06550        0.02500
Br         2.93140        2.21570       -0.87900
C          3.30240       -2.00440        0.68570
C          3.45130       -2.33300        1.97800
C          5.53870       -0.06550        0.02500
N          6.40190       -1.18070        0.03560
C          6.05290       -2.61760       -0.11730
C          7.04010       -3.69010        0.35350
C          6.37310       -5.07440        0.45750
C          7.34040       -6.06020        1.09790
C          7.66580       -0.67020        0.04200
C          7.60120        0.69000        0.05380
C          8.75510        1.48760        0.10970
C         10.00890        0.87510        0.11170
C         10.09610       -0.51630        0.05850
C          8.93740       -1.29760        0.03260
N          6.30770        1.07540        0.01220
C          5.96040        2.50370        0.08750
C          6.26890        3.17910       -1.25910
C          5.93050        4.66770       -1.26030
C          6.36570        5.30150       -2.58020
H          1.17760       -2.67840       -0.19860
H         -0.11650       -2.36720       -1.34770
H         -0.24620       -3.94910        1.27750
H         -0.11530       -4.58580       -0.39630
H         -1.61410       -3.71430        0.08580
H          1.57290        0.78360        2.77020
H          0.04900       -0.21760        2.62180
H          0.10790        2.81590        3.08490
H         -0.18450        1.55810        4.34790
H         -1.35190        1.76260        2.98670
H         -1.27580        1.17410       -1.33780
H         -1.57750       -0.57450       -1.08580
H         -1.15570        0.63290       -3.78850
H         -2.65740       -0.03960       -3.03630
H         -1.28330       -1.13990       -3.39550
H          3.20320       -2.79850       -0.04410
H          3.62720       -1.58540        2.74230
H          3.45880       -3.38500        2.25940
H          5.66500       -2.82090       -1.14230
H          5.35630       -2.84210        0.62600
H          7.38580       -3.39600        1.37330
H          7.86360       -3.82990       -0.36240
H          6.08170       -5.42250       -0.55760
H          5.45590       -5.03740        1.08980
H          8.28140       -6.10560        0.51140
H          6.88340       -7.06940        1.13980
H          7.57410       -5.73040        2.13450
H          8.71380        2.57040        0.15880
H         10.90920        1.47120        0.14870
H         11.06620       -0.99750        0.04790
H          9.12010       -2.33910        0.00640
H          6.53760        2.98420        0.90740
H          4.94510        2.63960        0.44870
H          5.70500        2.66850       -2.06840
H          7.34620        3.06970       -1.49020
H          6.46270        5.17830       -0.42870
H          4.83580        4.79950       -1.12380
H          7.46550        5.19540       -2.70920
H          6.11370        6.38140       -2.58220
H          5.85550        4.80860       -3.43510
