47

N         -0.67900        1.19300        0.00100
C          0.42720        1.06100       -0.79440
C          0.84330        2.16200       -1.70960
C          1.13670       -0.14170       -0.83250
C          0.73560       -1.21390       -0.03870
C          1.49010       -2.51100       -0.05700
C         -0.39330       -1.06510        0.77730
C         -1.10890        0.14810        0.77330
C         -2.28590        0.31950        1.68230
Ni        -1.69140        3.03290        0.00550
Br        -3.25650        2.17620       -1.87190
C         -0.39220        3.74390        1.56400
C          0.53890        2.99960        2.16320
N         -2.70380        4.87270        0.01000
C         -3.98940        4.78960       -0.71650
C         -2.94830        5.22040        1.42490
C         -2.08300        5.99750       -0.66860
C         -1.28410        5.76640       -1.80050
C         -1.01500        6.78480       -2.70920
C         -1.55700        8.05760       -2.52780
C         -2.33410        8.33060       -1.40950
C         -2.58810        7.32320       -0.48690
H          0.16760        3.02060       -1.59890
H          0.77760        1.80290       -2.76130
H          1.88370        2.47880       -1.49730
H          1.99700       -0.24380       -1.48820
H          2.34420       -2.47820       -0.76500
H          0.81190       -3.33410       -0.36970
H          1.88520       -2.73260        0.95690
H         -0.70720       -1.88820        1.40750
H         -2.43540       -0.57970        2.31960
H         -3.20400        0.49470        1.08840
H         -2.10590        1.18310        2.35770
H         -0.46960        4.77470        1.88620
H          0.70770        1.96470        1.90860
H          1.16100        3.44220        2.93540
H         -4.62560        3.97670       -0.31950
H         -3.82420        4.65580       -1.81220
H         -4.59210        5.72390       -0.66360
H         -2.74210        4.34770        2.07180
H         -4.03650        5.40730        1.61700
H         -2.40750        6.10900        1.80360
H         -0.95310        4.77570       -2.03670
H         -0.46270        6.58530       -3.62360
H         -1.41330        8.83230       -3.27760
H         -2.78310        9.30440       -1.28250
H         -3.28520        7.56540        0.30600
