23

O         -0.32800       -1.08200        0.00300
C         -0.92490       -0.11340        0.65510
C         -0.25060        1.06400        0.39810
C          0.76240        0.74560       -0.48630
C          0.68180       -0.61650       -0.69230
Ni        -0.91570       -3.04590        0.01600
Br        -2.35910       -2.54430       -1.93570
C          0.32950       -3.40400        1.66920
C          1.11230       -2.48960        2.25330
C         -1.53210       -5.10560        0.02970
N         -2.52920       -5.59560       -0.73300
C         -2.56400       -6.90420       -0.42410
C         -1.62070       -7.15230        0.54540
O         -0.98300       -6.03250        0.78230
H         -1.77160       -0.24080        1.31600
H         -0.47230        2.04250        0.80260
H          1.47430        1.42860       -0.93060
H          1.30720       -1.20730       -1.34800
H          0.33220       -4.39430        2.09570
H          1.18600       -1.47380        1.89740
H          1.70830       -2.77530        3.11620
H         -3.23400       -7.62650       -0.87050
H         -1.42230       -8.09680        1.03450
