52

N          1.14300       -0.69700        0.08900
C          0.95920        0.55340        0.61260
C          2.05690        1.19270        1.40700
C         -0.20300        1.27320        0.32500
C         -1.18890        0.69640       -0.46610
C         -0.99830       -0.58970       -0.97390
C          0.18960       -1.27960       -0.69090
C          0.38930       -2.68880       -1.16000
Ni         2.95390       -1.70510        0.42730
Br         1.99450       -2.69220        2.62120
C          3.75020       -0.88570       -1.39400
C          3.12060        0.02470       -2.13930
P          5.07520       -2.88600        0.82350
N          5.74580       -3.80830        2.21340
C          7.01550       -4.50100        2.38220
C          4.90610       -3.73060        3.42090
N          5.22570       -4.15000       -0.41920
C          4.11160       -5.09630       -0.28780
C          5.35040       -3.68600       -1.79980
N          6.22900       -1.53470        0.67860
C          6.11440       -0.66580        1.86310
C          7.62770       -1.97900        0.54830
H          2.91880        0.50480        1.51200
H          1.68860        1.46570        2.41550
H          2.40760        2.10850        0.88510
H         -0.33280        2.27790        0.70570
H         -2.09050        1.24070       -0.69360
H         -1.77670       -1.04360       -1.57620
H         -0.49050       -3.05850       -1.72960
H          0.50670       -3.34270       -0.26710
H          1.29690       -2.76810       -1.78810
H          4.71950       -1.19900       -1.73920
H          2.14640        0.41130       -1.88430
H          3.59030        0.39350       -3.04580
H          7.44470       -4.80760        1.41620
H          6.84740       -5.41480        3.00010
H          7.69150       -3.86890        2.99740
H          3.98910       -4.33690        3.26980
H          4.64570       -2.67560        3.65840
H          5.39180       -4.15820        4.32110
H          4.05720       -5.49710        0.74620
H          4.26360       -5.96350       -0.96750
H          3.14320       -4.60710       -0.53700
H          6.15700       -2.93220       -1.89130
H          4.38420       -3.31060       -2.19150
H          5.64700       -4.54150       -2.44380
H          5.10250       -0.22280        1.92530
H          6.84320        0.17250        1.80590
H          6.32880       -1.22340        2.80360
H          7.74390       -2.73410       -0.25320
H          8.03680       -2.37490        1.49160
H          8.28060       -1.11390        0.30550
