41

N          1.14300       -0.69700        0.08900
C          0.07690       -0.95860        0.90530
C          0.20010       -1.93280        2.03290
C         -1.11910       -0.24290        0.75440
C         -1.21510        0.72670       -0.24040
C         -0.12210        0.98500       -1.06360
C          1.07070        0.27000       -0.87490
C          2.22840        0.49190       -1.79100
Ni         2.95390       -1.70510        0.42730
Br         3.78590        0.27510        1.87460
C          2.26320       -3.34890       -0.77420
C          1.00740       -3.46950       -1.21080
N          4.76480       -2.71320        0.76550
C          4.79560       -4.12430        0.79160
C          3.60900       -5.04350        0.99060
C          5.99540       -4.85510        0.82260
C          7.20320       -4.22870        0.89570
C          7.22310       -2.86670        0.98260
C          6.03370       -2.10270        0.93560
C          6.35620       -0.63120        0.96930
H          1.21000       -2.38970        2.06200
H         -0.56810       -2.72660        1.94320
H          0.04230       -1.38860        2.99360
H         -1.96040       -0.41870        1.41220
H         -2.13370        1.28800       -0.36480
H         -0.20950        1.73310       -1.84040
H          1.99390        1.25370       -2.56800
H          2.45620       -0.46070       -2.32360
H          3.12500        0.81770       -1.22780
H          2.95070       -4.10080       -1.12100
H          0.23510       -2.75920       -0.96660
H          0.73630       -4.30630       -1.84630
H          2.67600       -4.51800        1.25460
H          3.79630       -5.67960        1.88230
H          3.49810       -5.75070        0.13660
H          5.99550       -5.94260        0.82910
H          8.12520       -4.79680        0.92780
H          8.20130       -2.40770        1.07670
H          7.43840       -0.40620        0.84410
H          6.22780       -0.26570        2.00920
H          5.85360       -0.07500        0.15560
