71

P          0.98870       -0.02670        0.09570
C         -0.12560       -1.33360       -0.65280
C          0.15390       -1.55300       -2.15320
C         -0.45450       -2.91340       -2.43150
C          0.13230       -3.72310       -1.30660
C          0.10790       -2.77190       -0.10110
C          0.65810       -0.07580        1.92390
C         -0.80140        0.11220        2.33140
C         -0.68120       -0.03300        3.84670
C          0.16850       -1.28930        3.99000
C          1.08380       -1.30190        2.75030
C          0.34270        1.49630       -0.81920
C          0.85490        2.84610       -0.34480
C          0.19540        3.81220       -1.30330
C          0.53250        3.15170       -2.63120
C          0.46520        1.63310       -2.35230
Ni         3.44870       -0.02670        0.09570
Br         3.44870        2.31070        1.21130
C          3.44870       -1.96700       -0.83040
C          3.77380       -2.12330       -2.11230
N          5.54870       -0.02670        0.09570
C          6.33340        0.15210        1.10920
C          5.90240        0.05640        2.56900
C          6.88610       -0.18610        3.56840
C          6.53280       -0.41710        4.90250
C          5.19800       -0.39010        5.28960
C          4.21430       -0.17320        4.33470
C          4.56320        0.00810        2.98990
N          7.68580        0.03470        0.74910
C          7.78600       -0.35520       -0.61810
C          6.33050       -0.44480       -1.06130
H         -1.20560       -1.09360       -0.54580
H          1.24500       -1.61450       -2.33430
H         -0.25960       -0.81260       -2.84080
H         -0.19690       -3.31900       -3.43530
H         -1.55760       -2.85110       -2.32310
H          1.20130       -3.89040       -1.58890
H         -0.30910       -4.72810       -1.13640
H          1.09270       -2.92830        0.36490
H         -0.70260       -3.02010        0.61720
H          1.19920        0.79920        2.34750
H         -1.43100       -0.70790        1.92000
H         -1.22850        1.09290        2.03140
H         -1.64400       -0.08470        4.40050
H         -0.10350        0.83310        4.24110
H         -0.53650       -2.14740        3.88860
H          0.68520       -1.39280        4.96820
H          0.86370       -2.25950        2.27740
H          2.16010       -1.31520        2.96750
H         -0.74900        1.52260       -0.59140
H          1.92150        2.92880       -0.59250
H          0.64710        3.06320        0.72480
H          0.58490        4.85220       -1.21990
H         -0.90040        3.81500       -1.12210
H          1.60210        3.39690       -2.83170
H         -0.05460        3.51680       -3.49940
H          1.39070        1.16360       -2.75170
H         -0.45080        1.23670       -2.82850
H          3.19600       -2.83620       -0.23820
H          4.04570       -1.26240       -2.71280
H          3.78800       -3.11340       -2.55620
H          7.93500       -0.25860        3.34190
H          7.29590       -0.63660        5.63700
H          4.92400       -0.56490        6.32280
H          3.17630       -0.17940        4.63830
H          3.76600        0.07260        2.29130
H          8.50820        0.12090        1.35990
H          8.27890       -1.35350       -0.68170
H          8.36200        0.40620       -1.19310
H          6.09490       -1.46120       -1.39160
H          6.14600        0.29500       -1.87420
