94

P          0.97730        0.06480        0.07270
N         -0.20130       -1.01280        0.94220
C         -1.66630       -0.92040        0.98980
C          0.16770       -2.39900        0.69880
O          0.45270        1.58970        0.66820
C          0.37010        1.62700        2.07760
O          0.59720       -0.57630       -1.47130
C         -0.74490       -0.27750       -1.82070
Ni         3.43730        0.06480        0.07270
Br         3.59470        0.88700        2.40800
C          3.46070       -0.50420       -1.95890
C          2.76110        0.16380       -2.89880
C          5.58730        0.06480        0.07270
N          6.41430       -1.01020        0.00700
C          6.27290       -2.58370        0.04130
C          5.07270       -3.43870       -0.04910
C          3.62450       -3.05070        0.05390
C          2.82800       -3.55720       -1.20790
C          3.14070       -3.67480        1.43850
C          5.13940       -4.87350       -0.07180
C          6.24230       -5.58960        0.11630
C          7.35950       -4.90610        0.40780
C          7.41350       -3.48880        0.40900
C          8.71010       -3.10500        1.04890
C          9.70430       -2.65690       -0.02740
C          8.33490       -2.46680        2.41470
C          7.74120       -0.39000        0.03580
C          7.55790        1.06850       -0.10640
N          6.27960        1.27610        0.47600
C          5.83410        2.60880        0.86080
C          4.66400        3.29740        0.31840
C          3.78010        2.80270       -0.84650
C          2.57450        3.70200       -1.21800
C          4.63780        2.61060       -2.10780
C          4.33860        4.57180        0.82440
C          5.09760        5.21170        1.77920
C          6.23930        4.62600        2.24950
C          6.63620        3.34580        1.83590
C          7.93100        2.82040        2.49340
C          9.15660        3.55780        1.90360
C          7.96550        2.96780        4.02870
H         -2.03150        0.11160        1.03010
H         -1.99290       -1.44520        1.92450
H         -2.15420       -1.51490        0.18320
H          1.22420       -2.39760        0.53290
H         -0.27260       -2.80420       -0.23350
H         -0.07640       -3.04550        1.56780
H         -0.42300        2.34580        2.36200
H          1.29210        2.04370        2.50210
H          0.09840        0.67410        2.57570
H         -0.79320        0.13010       -2.84650
H         -1.25070        0.47910       -1.17770
H         -1.33460       -1.21830       -1.81640
H          4.09850       -1.29830       -2.29000
H          2.12220        1.00240       -2.64200
H          2.81700       -0.11810       -3.94510
H          3.57010       -1.98160        0.14020
H          2.75050       -4.65610       -1.28820
H          3.32300       -3.24020       -2.13840
H          1.78870       -3.20070       -1.28430
H          3.09450       -4.78480        1.43740
H          2.16950       -3.44240        1.89180
H          3.84310       -3.37160        2.24430
H          4.26170       -5.52380       -0.16540
H          6.21740       -6.67410        0.15260
H          8.19510       -5.54140        0.68870
H          9.31350       -3.95000        1.46710
H          9.23810       -2.35080       -0.97350
H         10.17810       -3.57250       -0.44850
H         10.50560       -2.00690        0.36670
H          7.49700       -1.74020        2.40690
H          9.21270       -2.06910        2.95400
H          7.89100       -3.27370        3.05090
H          8.35840       -0.62780       -0.82720
H          8.24490       -0.51430        0.98940
H          7.47830        1.34350       -1.18080
H          8.42470        1.60060        0.28370
H          3.28880        1.88940       -0.57840
H          2.90230        4.70170       -1.57480
H          1.88960        3.81330       -0.34690
H          1.96680        3.24800       -2.02930
H          5.21530        3.52700       -2.33360
H          4.00850        2.39890       -2.99630
H          5.32990        1.75900       -1.98900
H          3.48240        5.14570        0.52010
H          4.80670        6.19280        2.13800
H          6.80970        5.19650        2.96400
H          8.03160        1.73360        2.32950
H          9.11780        4.64500        2.11800
H          9.22220        3.46550        0.80020
H         10.09690        3.14260        2.32750
H          7.97960        4.03190        4.34850
H          8.90320        2.51920        4.42420
H          7.10180        2.45910        4.49590
