70

P          1.03390        0.09040       -0.02610
C          0.13010        0.27690        1.62050
C         -1.39940        0.26950        1.68750
C         -1.65910        0.02820        3.18020
C         -0.72310       -1.13220        3.45940
C          0.57150       -0.66910        2.78780
C          0.40840        1.65030       -0.83240
C          0.88330        2.97620       -0.23480
C          0.32400        3.95800       -1.26870
C          0.64610        3.31770       -2.61550
C          0.80390        1.82820       -2.29230
C          0.38910       -1.62040       -0.46390
C          0.61160       -2.21610       -1.85050
C         -0.11540       -3.56390       -1.67500
C          0.48010       -4.07050       -0.37370
C          0.70130       -2.80690        0.46710
Ni         3.49390        0.09040       -0.02610
Br         3.49390       -0.09430       -2.60950
C          3.49390        0.24370        2.11840
C          4.02390       -0.74540        2.83610
N          5.59390        0.09040       -0.02610
C          6.32950       -0.61600       -0.98890
C          5.76810       -1.68730       -1.88850
C          7.73760       -0.60770       -1.02680
C          8.45360        0.08220       -0.07540
C          9.95930        0.08250       -0.10840
C          7.76720        0.74620        0.91770
C          6.35810        0.75580        0.94350
C          5.81380        1.73200        1.95160
H          0.42570        1.27720        2.00090
H         -1.81800       -0.60360        1.15020
H         -1.86490        1.19430        1.29420
H         -2.71740       -0.20420        3.42160
H         -1.33020        0.90700        3.78020
H         -1.14330       -2.01640        2.93510
H         -0.59960       -1.42020        4.52740
H          1.26750       -1.49780        2.57550
H          1.10820       -0.04960        3.54010
H         -0.70480        1.62380       -0.79400
H          1.98940        3.01600       -0.22790
H          0.48770        3.18190        0.78110
H          0.66040        5.01190       -1.17940
H         -0.78540        3.94550       -1.16430
H          1.62650        3.69040       -3.00110
H         -0.13270        3.55280       -3.37110
H          1.88140        1.72290       -2.28060
H          0.37530        1.11240       -3.02910
H         -0.71200       -1.48850       -0.44130
H          1.69210       -2.39600       -2.03710
H          0.17540       -1.61130       -2.67200
H         -0.01600       -4.28920       -2.50910
H         -1.20650       -3.37980       -1.52010
H          1.48190       -4.47910       -0.62750
H         -0.09660       -4.87580        0.13680
H          1.75380       -2.81540        0.82300
H         -0.01070       -2.80650        1.30540
H          3.02250        1.08880        2.61030
H          4.47250       -1.59300        2.32960
H          4.01710       -0.70560        3.91980
H          4.76480       -2.01590       -1.56210
H          6.35610       -2.62390       -1.75700
H          5.86220       -1.40790       -2.95890
H          8.26520       -1.17540       -1.77270
H         10.35580       -0.49570       -0.97280
H         10.35380       -0.37530        0.82290
H         10.33100        1.12460       -0.19110
H          8.33970        1.29600        1.65710
H          6.44790        2.64530        1.96820
H          5.84710        1.31180        2.98040
H          4.84590        2.15890        1.63520
