63

P          0.98970        0.06050       -0.07900
C          0.15740       -0.80840        1.29260
C         -0.10770       -2.17740        1.12130
C         -0.56490       -2.96590        2.16720
C         -0.73400       -2.41690        3.43380
C         -0.41710       -1.07390        3.65870
C          0.03930       -0.26770        2.59990
C          0.51180        1.76440        0.25910
C          1.47730        2.76530        0.33770
C          1.10750        4.07120        0.67250
C         -0.23110        4.38390        0.93230
C         -1.21000        3.39420        0.83410
C         -0.84420        2.08900        0.49220
C          0.27410       -0.83220       -1.49380
C         -1.13080       -0.87070       -1.68310
C         -1.69780       -1.72520       -2.63700
C         -0.87600       -2.54970       -3.40440
C          0.51220       -2.49450       -3.24330
C          1.08600       -1.63430       -2.29770
Ni         3.44970        0.06050       -0.07900
Br         3.58240        1.17330       -2.30840
C          3.39420       -0.90250        1.84070
C          4.32250       -1.41380        2.68180
N          5.54970        0.06050       -0.07900
C          6.18610       -0.30860       -1.22930
C          7.57760       -0.36510       -1.29790
C          8.33500        0.07890       -0.22140
C          7.68940        0.59630        0.90350
C          8.42730        1.23140        1.90680
C          7.77540        1.88950        2.94970
C          6.36810        1.90750        3.02480
C          5.62520        2.67760        4.07660
O          4.40360        2.62770        4.09430
C          6.28010        3.55450        5.11380
C          5.63680        1.21560        2.03590
C          6.27690        0.54930        0.97710
H          0.07450       -2.66700        0.17910
H         -0.75900       -4.01420        1.98800
H         -1.07910       -3.04780        4.24230
H         -0.50150       -0.67490        4.66300
H          0.33890        0.74990        2.82480
H          2.51390        2.53040        0.15230
H          1.86450        4.83750        0.74480
H         -0.50820        5.39130        1.21390
H         -2.24770        3.63610        1.03820
H         -1.62200        1.33790        0.44570
H         -1.80570       -0.28660       -1.07380
H         -2.77540       -1.77610       -2.75990
H         -1.31550       -3.24130       -4.11360
H          1.14400       -3.14520       -3.83000
H          2.15480       -1.63860       -2.15010
H          2.42420       -1.07980        2.20630
H          5.38380       -1.42080        2.52610
H          3.93820       -1.91710        3.57170
H          5.61250       -0.66780       -2.07150
H          8.06490       -0.73780       -2.18990
H          9.41590        0.08170       -0.29880
H          9.50850        1.28310        1.84810
H          8.39780        2.40890        3.65820
H          7.37890        3.60860        5.04490
H          6.01960        3.17960        6.12460
H          5.89680        4.59250        5.00950
H          4.56020        1.27310        2.04660
