54

P          0.97620       -0.04450        0.08630
F         -0.67290        0.17930       -0.09320
F          0.94990       -1.28360       -1.03900
F          0.79000       -0.32750        1.72490
Pd         3.43620       -0.04450        0.08630
Br         3.39600       -1.58830        2.03580
C          3.40900        1.46820       -1.32920
C          2.86660        1.32320       -2.53450
P          5.89620       -0.04450        0.08630
C          6.73370        1.16910       -0.98720
C          6.28020        1.27320       -2.33190
C          6.77390        2.23690       -3.21640
C          6.27490        2.30930       -4.63490
C          7.73520        3.13950       -2.75720
C          8.18920        3.07070       -1.43350
C          7.69580        2.09490       -0.54820
C          6.51670        0.01690        1.77860
C          6.20800        1.13420        2.57120
C          6.73680        1.25870        3.86590
C          6.42570        2.45630        4.71710
C          7.58110        0.25730        4.36280
C          7.89140       -0.85720        3.57730
C          7.35660       -0.97610        2.29090
C          6.25290       -1.64970       -0.74800
C          6.95820       -1.73170       -1.97300
C          7.20230       -2.95860       -2.60130
C          7.90350       -3.00650       -3.92940
C          6.78370       -4.14130       -1.98700
C          6.12240       -4.08990       -0.76030
C          5.85360       -2.85880       -0.15150
H          3.85700        2.41970       -1.05660
H          2.41390        0.38520       -2.82600
H          2.88280        2.15700       -3.23140
H          5.52040        0.58530       -2.68860
H          5.51080        1.52930       -4.84690
H          7.11930        2.16380       -5.34190
H          5.81330        3.30110       -4.82760
H          8.11950        3.90160       -3.42410
H          8.91850        3.79250       -1.09060
H          8.03820        2.08020        0.47210
H          5.56640        1.91240        2.17150
H          5.74040        3.15940        4.19880
H          7.36630        2.99690        4.95650
H          5.94600        2.13020        5.66370
H          8.00840        0.34450        5.35630
H          8.55180       -1.61940        3.96590
H          7.63320       -1.83680        1.69180
H          7.33480       -0.86850       -2.47450
H          8.16370       -1.98820       -4.29580
H          7.23180       -3.47280       -4.68210
H          8.83700       -3.59920       -3.85290
H          6.97630       -5.09810       -2.45540
H          5.81410       -5.00960       -0.27850
H          5.35430       -2.86790        0.79580
