61

P          0.97950       -0.09750       -0.00800
C          0.11900        0.94800       -1.39250
C         -1.42420        0.89630       -1.45230
C          0.53620        2.42800       -1.20490
C          0.63400        0.56730       -2.80020
C          0.58880       -2.02420       -0.28820
C          1.01600       -2.78120       -1.58670
C          1.28940       -2.89130        0.79760
C         -0.93490       -2.27770       -0.19040
C          0.23950        0.79020        1.53160
C          0.04580        0.33970        3.07980
C          1.32930        0.16690        3.89520
C         -0.75800        1.46110        3.77360
C         -0.79050       -0.94000        3.28680
Pd         3.43950       -0.09750       -0.00800
Br         3.43950       -1.17660       -2.36250
C          3.43950        0.79820        1.94650
C          3.38130        2.11770        2.13750
N          5.53950       -0.09750       -0.00800
C          6.22620        0.99510        0.44760
C          7.61460        1.04560        0.30310
C          8.31450       -0.07940       -0.11820
C          7.62100       -1.22270       -0.47450
C          6.20960       -1.18510       -0.50030
H         -1.92140        1.23650       -0.52790
H         -1.81480       -0.06810       -1.76180
H         -1.77920        1.59130       -2.25820
H          0.13730        2.88040       -0.26990
H          0.13120        3.05930       -2.04550
H          1.64340        2.52800       -1.24110
H          0.34000       -0.42900       -3.11220
H          1.71870        0.72610       -2.88510
H          0.19070        1.24210       -3.57710
H          2.06950       -3.07820       -1.58290
H          0.70200       -2.33190       -2.52910
H          0.55060       -3.79800       -1.61200
H          2.38930       -2.78900        0.73380
H          1.04390       -3.97250        0.65980
H          1.03390       -2.68540        1.82350
H         -1.44570       -1.93790       -1.10500
H         -1.38070       -1.78970        0.69530
H         -1.16840       -3.35460       -0.14560
H         -0.81580        0.91050        1.23850
H          0.69250        1.79800        1.54530
H          1.89390        1.12130        3.98430
H          1.91180       -0.68360        3.50710
H          1.10330       -0.08870        4.96710
H         -0.23530        2.43580        3.70390
H         -0.90650        1.23440        4.85410
H         -1.76920        1.56480        3.32000
H         -0.27370       -1.84840        2.99960
H         -1.76460       -0.89980        2.77380
H         -0.97510       -1.10570        4.37210
H          3.68810        0.15710        2.77930
H          3.24120        2.80230        1.31120
H          3.50990        2.51690        3.14080
H          5.68400        1.88530        0.72430
H          8.15370        1.96760        0.54250
H          9.39750       -0.06060       -0.16320
H          8.13470       -2.12440       -0.77290
H          5.65620       -2.06260       -0.78390
