72

P          0.94400        0.05820       -0.05900
C          0.16910       -1.54490        0.33860
C          1.09500       -2.58440        0.52410
C          0.70820       -3.88490        0.84990
C          1.74130       -4.97030        0.98730
C         -0.64900       -4.15480        1.04110
C         -1.59050       -3.12750        0.90760
C         -1.19190       -1.82620        0.55680
C          0.34000        1.17540        1.22100
C          0.19800        0.80660        2.57040
C         -0.32320        1.73220        3.49510
C         -0.52220        1.37150        4.93780
C         -0.68320        3.02340        3.07270
C         -0.53240        3.38520        1.73390
C         -0.03350        2.46980        0.81550
C          0.15840        0.30130       -1.66590
C          0.88510        0.48190       -2.85090
C          0.21740        0.91210       -4.01990
C          0.97780        1.18890       -5.27360
C         -1.15990        1.14740       -4.00520
C         -1.89270        0.96360       -2.83290
C         -1.23010        0.56140       -1.67890
Pd         3.40400        0.05820       -0.05900
Br         3.40400       -1.87570       -1.78180
C          3.40400        1.66350        1.37120
C          4.25980        1.92850        2.35020
P          5.86400        0.05820       -0.05900
C          7.09220       -0.31800        1.24990
C          6.37180       -1.18740       -1.28460
C          6.51030        1.86560       -0.31060
C          6.22620        2.98620        0.70880
C          8.05680        1.87390       -0.45870
C          5.92370        2.33870       -1.65130
H          2.14770       -2.38530        0.43000
H          2.76770       -4.58900        0.78510
H          1.53390       -5.77660        0.25230
H          1.72610       -5.39390        2.01220
H         -0.97030       -5.15450        1.30720
H         -2.63650       -3.34170        1.08200
H         -1.95400       -1.07640        0.50030
H          0.47450       -0.18980        2.88810
H         -0.19330        0.33170        5.14600
H         -1.60030        1.45830        5.18900
H          0.05400        2.06680        5.58260
H         -1.08200        3.74320        3.77190
H         -0.80970        4.38290        1.40790
H          0.06990        2.77100       -0.21820
H          1.95380        0.35600       -2.85420
H          2.05590        0.96100       -5.16430
H          0.86880        2.26430       -5.53450
H          0.56100        0.57780       -6.10620
H         -1.67700        1.49700       -4.88830
H         -2.94830        1.18460       -2.80560
H         -1.81650        0.53000       -0.78050
H          2.50710        2.24400        1.45660
H          5.13310        1.33430        2.53350
H          4.02840        2.74020        3.04040
H          6.86060       -1.34780        1.60230
H          7.00900        0.34880        2.12460
H          8.13160       -0.37190        0.88070
H          6.07490       -2.20960       -0.98520
H          7.47310       -1.15110       -1.41320
H          5.93730       -0.90810       -2.26850
H          6.60160        2.73040        1.72140
H          5.17570        3.32120        0.66520
H          6.75730        3.92260        0.43780
H          8.56690        1.67810        0.50760
H          8.42520        2.87800       -0.76290
H          8.39800        1.14370       -1.21880
H          4.81370        2.35000       -1.60330
H          6.23710        1.66730       -2.47760
H          6.26980        3.36750       -1.89870
