89

P          1.06440        0.03880       -0.06590
C          0.71520        1.64140        0.78910
C          1.19170        2.87910        0.21570
C          1.85970        3.01820       -1.12980
C          1.04760        4.09050        0.89500
C          0.40030        4.13080        2.12480
C         -0.09500        2.96530        2.68060
C          0.06220        1.72070        2.03800
C          0.25610        0.16870       -1.73890
C         -0.78450        1.09850       -2.15630
C         -1.52640        2.12100       -1.31270
C         -1.29090        1.02250       -3.46700
C         -0.84480        0.06120       -4.35930
C          0.10730       -0.86450       -3.95680
C          0.63570       -0.81760       -2.66570
C          0.31290       -1.18230        1.10660
C         -1.11330       -1.39570        1.23460
C         -2.20240       -0.71120        0.45320
C         -1.59940       -2.40510        2.08540
C         -0.73340       -3.22050        2.78110
C          0.63900       -3.06410        2.62860
C          1.15880       -2.05670        1.80190
Pd         3.52440        0.03880       -0.06590
Br         3.52440        0.25170        2.51530
C          3.52440       -0.13800       -2.20860
C          3.77320       -0.85370       -3.29910
C          5.67440        0.03880       -0.06590
N          6.44780       -1.08650       -0.03430
C          6.01100       -2.49000        0.07550
C          5.20980       -2.98860       -1.13140
C          5.98850       -2.97070       -2.46860
C          7.19050       -3.87630       -2.54880
C          7.72200       -0.63140       -0.05840
C          7.70920        0.73900       -0.10800
C          8.89670        1.48650       -0.12060
C         10.11300        0.79250       -0.08890
C         10.13130       -0.61100       -0.04520
C          8.92580       -1.34350       -0.03170
N          6.43310        1.17020       -0.12310
C          5.98380        2.56750       -0.19970
C          5.27970        3.01560        1.07920
C          6.17160        2.80380        2.31450
C          5.47490        3.26570        3.58870
H          1.85050        2.09930       -1.69070
H          2.90340        3.38540       -1.02970
H          1.28770        3.73900       -1.75260
H          1.42200        5.01250        0.46570
H          0.30310        5.08500        2.62720
H         -0.60090        3.01620        3.63870
H         -0.33060        0.85540        2.53260
H         -1.34560        2.10110       -0.23970
H         -2.61610        1.89150       -1.36760
H         -1.37880        3.14850       -1.70070
H         -2.07580        1.69850       -3.79380
H         -1.26550        0.01740       -5.35590
H          0.43050       -1.62980       -4.64840
H          1.35380       -1.57290       -2.38620
H         -1.83830       -0.26240       -0.45230
H         -2.77660        0.00860        1.06980
H         -2.91690       -1.46990        0.05260
H         -2.66970       -2.57610        2.18050
H         -1.13090       -4.01340        3.40650
H          1.31100       -3.73460        3.14950
H          2.22500       -1.99050        1.68720
H          3.09810        0.78030       -2.55420
H          4.08280       -1.83810       -3.32870
H          3.54960       -0.41710       -4.27520
H          5.38610       -2.59390        0.98740
H          6.87460       -3.16640        0.19650
H          4.29300       -2.37330       -1.18890
H          4.86550       -4.02430       -0.94010
H          6.29480       -1.92640       -2.71300
H          5.33320       -3.38100       -3.26760
H          7.96230       -3.57360       -1.82270
H          7.60880       -3.79230       -3.57680
H          6.86440       -4.92300       -2.37920
H          8.90250        2.56780       -0.14690
H         11.04380        1.34470       -0.08980
H         11.07310       -1.14140       -0.02290
H          8.95760       -2.42020        0.00680
H          5.32140        2.70180       -1.08020
H          6.84780        3.24560       -0.34430
H          4.33170        2.46000        1.17970
H          5.02750        4.09540        0.98240
H          7.12200        3.36950        2.19750
H          6.41770        1.72520        2.42440
H          5.24540        4.34940        3.52950
H          6.13790        3.08240        4.46050
H          4.53130        2.70300        3.73960
