72

P          1.07970        0.04370        0.04170
C          0.26230       -1.04170       -1.15410
C         -1.11990       -1.24240       -1.26830
C         -1.60870       -2.19840       -2.17350
C         -0.72310       -2.95630       -2.97150
O         -1.13660       -3.94180       -3.80830
C         -2.42800       -4.41040       -3.90290
C          0.64770       -2.71070       -2.88570
C          1.12950       -1.75720       -1.99690
C          0.71880       -1.01640        1.49970
C         -0.02600       -2.22170        1.48810
C         -0.38790       -2.85460        2.67860
C         -0.00550       -2.31940        3.91910
O         -0.35970       -2.89020        5.10050
C         -1.16810       -4.00050        5.24450
C          0.75910       -1.15000        3.94050
C          1.11290       -0.50710        2.74910
C          0.34320        1.70120       -0.05190
C         -0.56760        2.06260       -1.05220
C         -1.07640        3.36330       -1.10610
C         -0.67420        4.33130       -0.16590
O         -1.08490        5.62410       -0.22590
C         -1.82150        6.17490       -1.25430
C          0.20220        3.95860        0.85850
C          0.69640        2.65410        0.92310
Pd         3.53970        0.04370        0.04170
Br         3.53970       -2.53800        0.24970
C          3.53970        2.18670       -0.13100
C          2.82650        2.81720       -1.06320
N          5.63970        0.04370        0.04170
C          6.49580        1.08690       -0.06480
N          7.78970        0.68480       -0.02870
C          8.98130        1.50880       -0.12190
C          8.88990        2.90890       -0.26860
C         10.04220        3.69160       -0.36500
C         11.30700        3.09400       -0.31460
C         11.41380        1.71450       -0.16940
C         10.26650        0.92500       -0.07280
C          7.73950       -0.65280        0.10460
C          6.43210       -1.04430        0.14530
H         -1.80660       -0.69150       -0.64200
H         -2.67440       -2.35850       -2.22820
H         -2.45790       -5.25430       -4.62170
H         -3.10160       -3.60490       -4.25940
H         -2.76540       -4.78330       -2.91080
H          1.34760       -3.27690       -3.49210
H          2.19920       -1.60560       -1.94620
H         -0.38280       -2.69230        0.59240
H         -0.98670       -3.75370        2.61980
H         -1.27050       -4.24210        6.32210
H         -0.71690       -4.87380        4.72770
H         -2.17980       -3.79650        4.83070
H          1.05960       -0.71980        4.88800
H          1.67280        0.41500        2.81240
H         -0.88200        1.35760       -1.80410
H         -1.76850        3.61150       -1.89820
H         -1.94030        7.26340       -1.07980
H         -2.82520        5.70420       -1.30610
H         -1.28530        6.03430       -2.21860
H          0.52370        4.68830        1.59240
H          1.39460        2.40640        1.71180
H          4.25530        2.78230        0.42030
H          2.19340        2.25930       -1.74170
H          2.91470        3.89160       -1.18760
H          6.19090        2.10850       -0.17710
H          7.93590        3.41190       -0.31200
H          9.96160        4.76430       -0.47790
H         12.19650        3.70430       -0.39210
H         12.39220        1.25090       -0.13050
H         10.40330       -0.14040        0.03880
H          8.58970       -1.33040        0.16530
H          6.11240       -2.06620        0.24380
