111

P          1.07760        0.01900        0.06010
C          0.26020        1.00860       -1.26410
C         -1.12470        1.30240       -1.48470
C         -2.24730        0.89710       -0.57620
C         -1.49070        2.04650       -2.63150
C         -0.53920        2.50130       -3.54240
C          0.80340        2.22430       -3.33580
C          1.19230        1.48540       -2.21820
C          0.55420       -1.71270       -0.47790
C          0.47030       -2.89720        0.37020
C          0.82340       -3.00050        1.82870
C          0.02290       -4.12200       -0.16660
C         -0.29630       -4.25200       -1.50530
C         -0.19920       -3.15330       -2.34110
C          0.20120       -1.91090       -1.83610
C          0.36070        1.01650        1.47370
C          0.05370        2.41590        1.58090
C          0.39540        3.47480        0.58020
C         -0.67000        2.89290        2.70390
C         -1.07890        2.04340        3.72680
C         -0.77010        0.69130        3.65660
C         -0.08270        0.21420        2.54320
Pd         3.53760        0.01900        0.06010
Br         3.53760        2.54360        0.63830
C          3.53760       -2.07680       -0.41980
C          3.24660       -2.45090       -1.66370
P          5.99760        0.01900        0.06010
C          6.67150        1.32460       -1.24910
C          6.62430        2.79480       -1.13750
C          6.20740        3.66290        0.00970
C          6.94720        3.64770       -2.23130
C          7.36320        3.18420       -3.44520
C          7.73950        4.14060       -4.55730
C          7.37500        1.82520       -3.64480
C          6.97680        0.89910       -2.64150
C          6.80950       -0.49820       -3.24150
C          6.66570        0.71600        1.80620
C          7.98190        0.30050        2.33830
C          8.83170       -0.88020        1.93400
C          8.56390        0.85710        3.50130
C          7.90310        1.74880        4.29710
C          8.53860        2.31290        5.54210
C          6.58750        1.98540        4.00980
C          5.94170        1.42220        2.87830
C          4.47230        1.53450        3.09490
C          6.72630       -1.63600       -0.21940
C          7.98320       -1.85410       -0.89200
C          9.03170       -0.76140       -1.11730
C          8.35440       -3.14680       -1.26040
C          7.59440       -4.25230       -0.87990
C          7.94170       -5.61580       -1.36580
C          6.56380       -4.05900        0.05240
C          6.19120       -2.75030        0.45020
C          5.35750       -2.62360        1.72510
H         -1.93670        0.76430        0.46910
H         -2.74970       -0.00930       -0.96680
H         -3.00170        1.71780       -0.54900
H         -2.53230        2.28650       -2.82740
H         -0.84350        3.07240       -4.41140
H          1.54330        2.57280       -4.04570
H          2.24590        1.27240       -2.09680
H          1.52270       -2.21770        2.16290
H          1.36860       -3.95120        2.02460
H         -0.11650       -3.07170        2.42860
H         -0.05660       -5.00820        0.45700
H         -0.61040       -5.21470       -1.89250
H         -0.43900       -3.26710       -3.38950
H          0.25640       -1.11020       -2.55810
H          1.01360        3.12150       -0.24520
H          0.97400        4.27290        1.09070
H         -0.53780        3.91250        0.16420
H         -0.94090        3.93980        2.78520
H         -1.64380        2.41860        4.57070
H         -1.08550        0.02320        4.44080
H          0.05850       -0.82210        2.55350
H          3.51300       -2.88810        0.28370
H          3.09990       -1.70990       -2.43990
H          3.10750       -3.50440       -1.89450
H          6.05010        3.12400        0.94030
H          5.29370        4.23020       -0.31350
H          6.95280        4.45900        0.20930
H          6.88060        4.73160       -2.12260
H          7.55750        5.20150       -4.27260
H          7.14040        3.93680       -5.47150
H          8.81550        4.03690       -4.80060
H          7.65390        1.49610       -4.64000
H          6.86550       -0.47630       -4.35200
H          5.81790       -0.91670       -3.00170
H          7.60790       -1.22230       -3.10980
H          8.31300       -1.72910        1.51380
H          9.04160       -1.46070        2.86960
H          9.83260       -0.61950        1.55290
H          9.54820        0.53800        3.83770
H          9.58130        1.95100        5.67730
H          7.95450        2.00730        6.43680
H          8.56060        3.42060        5.48580
H          6.03230        2.56580        4.74350
H          4.21510        1.15820        4.11080
H          3.91400        0.83760        2.44730
H          4.16440        2.60680        3.12320
H          8.76960        0.20290       -0.64690
H          9.35880       -0.60160       -2.15850
H          9.95870       -1.07530       -0.59160
H          9.26630       -3.29310       -1.83440
H          8.80540       -5.59280       -2.06600
H          7.07660       -6.02450       -1.92350
H          8.19120       -6.29310       -0.51090
H          6.09140       -4.92840        0.49400
H          4.85710       -3.57700        2.01310
H          4.64620       -1.77590        1.74660
H          6.05230       -2.37970        2.55680
