38

P          1.07850        0.06170       -0.00570
C         -0.27370        0.62920       -1.08790
C          0.88750       -1.71540       -0.34360
C          0.45270        0.76400        1.51890
C         -0.12570       -0.02500        2.51890
C         -0.69580        0.58730        3.64190
C         -0.69430        1.97400        3.76530
C         -0.10760        2.76540        2.77380
C          0.46880        2.16290        1.65500
Pd         3.53850        0.06170       -0.00570
Br         3.53850       -1.02410        2.34570
C          3.53850        0.96310       -1.95770
C          4.48010        1.55550       -2.70810
N          5.63850        0.06170       -0.00570
C          6.35610       -0.18870       -1.15320
F          5.74360       -0.60840       -2.28620
C          7.75270       -0.22860       -1.15190
C          8.44520        0.00810        0.02530
F          9.80100       -0.00810        0.03790
C          7.73520        0.23490        1.19260
C          6.33760        0.22510        1.16950
F          5.71760        0.54800        2.32370
H         -1.26880        0.29480       -0.74710
H         -0.07490        0.25710       -2.11800
H         -0.23830        1.74000       -1.14470
H         -0.18890       -1.98980       -0.31440
H          1.43770       -2.31610        0.40440
H          1.28090       -1.93290       -1.35960
H         -0.16020       -1.10240        2.42270
H         -1.15690       -0.02020        4.41630
H         -1.14160        2.45220        4.62880
H         -0.11310        3.84250        2.86040
H          0.89360        2.78540        0.87560
H          2.54110        1.00960       -2.38240
H          5.50570        1.69900       -2.41090
H          4.20110        1.97040       -3.67190
H          8.29200       -0.46950       -2.05920
H          8.26300        0.43040        2.11770
