66

P          1.04550        0.07780       -0.04330
Cl        -0.20070       -1.41690        0.67200
Cl         1.03930        0.95420        1.83980
Cl        -0.78240        0.57060       -0.88840
Pd         3.50550        0.07780       -0.04330
Br         3.59540       -0.83400        2.27710
C          3.34200        0.66470       -2.04040
C          3.16400        1.93080       -2.40530
P          5.96550        0.07780       -0.04330
C          6.96380        1.61850        0.51990
C          6.43220        2.94770       -0.06500
C          5.06300        3.33830        0.46490
C          5.15630        3.62570        1.94880
C          5.69030        2.39690        2.67840
C          7.02370        1.92960        2.07540
C          6.81710       -1.03160        1.27130
C          6.55870       -2.55360        1.06290
C          7.41100       -3.18450       -0.08460
C          8.90590       -2.95680        0.08270
C          9.16670       -1.46260        0.20620
C          8.39020       -0.91510        1.40690
C          6.26670       -0.21290       -1.96460
C          7.03030        0.57760       -2.95040
C          7.53170        1.98780       -2.85410
C          7.35550        0.06010       -4.22620
C          6.94460       -1.18390       -4.65220
C          7.40340       -1.71390       -6.00160
C          6.10720       -1.90490       -3.83540
C          5.73360       -1.45720       -2.54070
C          4.73260       -2.39000       -1.86890
H          3.36140       -0.09390       -2.81500
H          3.10880        2.71890       -1.66790
H          3.05900        2.17470       -3.45760
H          8.00070        1.46250        0.16080
H          6.27190        2.91160       -1.10160
H          7.16490        3.76620        0.13840
H          4.34580        2.51660        0.26590
H          4.71980        4.25250       -0.06490
H          4.15480        3.90200        2.33740
H          5.84420        4.48770        2.10140
H          4.95540        1.57640        2.61180
H          5.83420        2.66040        3.74900
H          7.38410        1.11500        2.72100
H          7.76360        2.74950        2.22730
H          6.37650       -0.74840        2.24380
H          5.47810       -2.74560        0.92640
H          6.85910       -3.08760        1.99170
H          7.19470       -2.72950       -1.05200
H          7.20920       -4.27540       -0.15470
H          9.45280       -3.36690       -0.79160
H          9.26640       -3.48300        0.99560
H          8.86820       -0.92070       -0.71940
H         10.25570       -1.31090        0.35920
H          8.78460        0.09090        1.59200
H          8.70870       -1.49730        2.30150
H          8.17780        2.14600       -1.97900
H          6.63900        2.63350       -2.99940
H          8.12320        2.34210       -3.72420
H          7.93810        0.62940       -4.93810
H          8.05950       -0.99110       -6.53920
H          6.53940       -1.93670       -6.66230
H          7.99690       -2.64250       -5.85830
H          5.75440       -2.85490       -4.22670
H          4.22560       -3.02250       -2.63660
H          3.90770       -1.84800       -1.38140
H          5.15390       -3.15170       -1.21310
