45

P          0.99420       -0.07490        0.06600
Cl        -0.95380        0.58530       -0.19710
Cl         0.96620       -0.98240       -1.79920
Cl         0.52370       -1.10140        1.80960
Pd         3.45420       -0.07490        0.06600
Br         3.38230       -2.44010        0.85070
C          3.40950        1.81670       -0.75110
C          3.16900        1.90840       -2.06250
P          5.91420       -0.07490        0.06600
O          7.35130        0.77570       -0.30090
C          6.95260        2.14620       -0.61550
C          7.00630        3.08560        0.62430
C          7.81380        2.75160       -1.70820
O          5.96470        0.63760        1.62130
C          5.65360       -0.17870        2.74050
C          6.33380       -1.56530        2.82110
C          6.13150        0.61210        3.96460
O          6.54010       -1.66200       -0.04990
C          6.08430       -2.30130       -1.22980
C          6.61170       -1.66000       -2.51290
C          6.55770       -3.75790       -1.16660
H          3.58680        2.70540       -0.15900
H          2.99950        1.00600       -2.64790
H          3.13740        2.86620       -2.56900
H          5.93290        2.20630       -1.04100
H          8.01920        3.08430        1.07320
H          6.26090        2.84840        1.40010
H          6.74520        4.12340        0.32250
H          8.88260        2.80450       -1.40810
H          7.46500        3.79160       -1.92450
H          7.70610        2.17370       -2.65310
H          4.55200       -0.29460        2.81270
H          7.43950       -1.47980        2.73590
H          5.95000       -2.27480        2.07410
H          6.09450       -2.04000        3.79810
H          7.23920        0.72670        3.93870
H          5.85310        0.10000        4.91010
H          5.68340        1.62770        3.96800
H          4.97740       -2.30810       -1.27310
H          7.72630       -1.62550       -2.51620
H          6.23410       -0.62170       -2.62790
H          6.25890       -2.22860       -3.39780
H          7.66830       -3.79220       -1.13630
H          6.19530       -4.32440       -2.04840
H          6.17080       -4.22770       -0.24110
