68

P          1.01830       -0.09830       -0.00250
C          0.22790        1.56690        0.29410
C         -1.30100        1.69710        0.36930
C          0.81980        2.13250        1.59910
C          0.65080       -0.62020       -1.74580
C          1.22040       -2.02470       -1.96630
C         -0.85770       -0.69060       -2.04140
C          0.25030       -1.05250        1.35430
Pd         3.47830       -0.09830       -0.00250
Br         3.47830        1.57760       -1.97720
C          3.47830       -1.48940        1.63670
C          3.00960       -1.16580        2.84030
P          5.93830       -0.09830       -0.00250
C          7.01060       -1.28440        1.00430
C          6.61740       -2.71480        0.54740
C          8.53800       -1.21120        0.86820
C          6.68190       -1.10100        2.50470
C          6.36040       -0.21980       -1.76310
C          7.06950        0.78540       -2.43440
C          7.43450        0.63190       -3.77730
C          7.07580       -0.52670       -4.46580
C          6.35600       -1.53240       -3.81930
C          5.99720       -1.37990       -2.47170
C          6.35090        1.57560        0.56770
C          5.35020        2.46870        0.97700
C          5.68880        3.76190        1.39700
C          7.01750        4.17100        1.42060
C          8.02980        3.28850        1.01920
C          7.68960        2.01340        0.58300
H          0.59080        2.22990       -0.52130
H         -1.73280        1.07350        1.17390
H         -1.81440        1.49590       -0.57410
H         -1.55270        2.75850        0.59130
H          0.47140        1.56660        2.48640
H          0.51990        3.19210        1.74170
H          1.92990        2.09930        1.57390
H          1.11720        0.07160       -2.47370
H          0.74500       -2.75370       -1.27240
H          2.31720       -2.03390       -1.81190
H          1.01240       -2.36040       -3.00700
H         -1.39580       -1.29290       -1.27490
H         -1.04780       -1.15220       -3.03340
H         -1.29450        0.31070       -2.12910
H         -0.85040       -1.04160        1.20260
H          0.45470       -0.64400        2.35620
H          0.57110       -2.11080        1.29710
H          3.80370       -2.50540        1.49560
H          2.62840       -0.17270        3.04010
H          2.98890       -1.91700        3.62580
H          7.03590       -2.94220       -0.45380
H          5.53370       -2.85530        0.44690
H          6.98480       -3.49100        1.25230
H          8.85180       -1.30240       -0.19090
H          8.98740       -2.06350        1.43240
H          8.96780       -0.31630        1.34580
H          5.61580       -1.15190        2.73110
H          7.03010       -0.10980        2.86280
H          7.16380       -1.88780        3.12400
H          7.37350        1.69880       -1.93630
H          7.99220        1.40890       -4.27580
H          7.36370       -0.64840       -5.50610
H          6.07920       -2.42800       -4.35270
H          5.44430       -2.17280       -1.98940
H          4.31170        2.16920        0.95940
H          4.91430        4.45750        1.69410
H          7.29000        5.16980        1.74590
H          9.06850        3.60170        1.03060
H          8.48720        1.37580        0.24670
