54

P          1.05870        0.05470        0.05970
Cl        -0.79380       -0.81930       -0.26310
Cl         0.77280       -0.03850        2.11700
Cl         0.49980        1.80250       -0.91570
Pd         3.51870        0.05470        0.05970
Br         3.42070       -1.70850        1.84260
C          3.54220        1.82130       -1.02790
C          3.55340        1.82420       -2.35680
P          5.97870        0.05470        0.05970
C          6.70260        0.72140       -1.46630
C          7.10350        2.05890       -1.68170
C          7.37420        2.51110       -2.97710
C          7.24090        1.64930       -4.07570
C          7.41660        2.14980       -5.47730
C          6.88200        0.31440       -3.86110
C          6.61020       -0.13720       -2.57330
C          6.37520        1.46980        1.12970
C          5.40760        2.25050        1.77470
C          5.80060        3.31500        2.60330
C          7.17380        3.60930        2.79400
C          7.61910        4.73900        3.67360
C          8.12770        2.81560        2.17230
C          7.73560        1.76850        1.34740
C          6.67140       -1.61400        0.33590
C          5.86710       -2.76130        0.27040
C          6.39040       -4.03290        0.50820
C          7.75610       -4.19670        0.75670
C          8.32570       -5.56290        1.00950
C          8.58930       -3.06980        0.74790
C          8.05130       -1.79110        0.54250
H          3.51800        2.76470       -0.49140
H          3.56270        0.89060       -2.90460
H          3.54640        2.76850       -2.89330
H          7.14090        2.79460       -0.89670
H          7.63530        3.55100       -3.12780
H          7.65110        3.23500       -5.49590
H          6.46190        2.00140       -6.02920
H          8.22260        1.59200       -5.99330
H          6.76450       -0.36550       -4.69560
H          6.26460       -1.15930       -2.45060
H          4.35650        2.03410        1.65360
H          5.04430        3.90970        3.08460
H          6.75930        5.28680        4.11570
H          8.21950        5.45320        3.06490
H          8.26270        4.35380        4.49450
H          9.18830        3.02020        2.29920
H          8.50720        1.18520        0.87100
H          4.82940       -2.69540        0.01520
H          5.72790       -4.88970        0.48150
H          7.53030       -6.33940        1.02800
H          8.84320       -5.57800        1.99190
H          9.04990       -5.82250        0.20990
H          9.65470       -3.18170        0.90730
H          8.72410       -0.95090        0.54290
