61

P          0.96060        0.08730       -0.02870
C          0.02620        1.64250       -0.08330
C         -0.53030        2.22740        1.06880
C         -1.02780        3.54820        1.02260
C         -1.56950        4.22860        2.24330
C         -0.97090        4.27510       -0.17610
C         -0.41040        3.70580       -1.31290
C          0.09990        2.41240       -1.26310
C          0.76070       -0.49980       -1.72860
C          1.88140       -0.72840       -2.53590
C          1.73250       -1.15610       -3.86290
C          2.93700       -1.40480       -4.71890
C          0.44190       -1.34020       -4.38830
C         -0.67920       -1.10740       -3.59050
C         -0.52580       -0.69520       -2.26660
C          0.30040       -0.93370        1.29740
C          1.13130       -1.43430        2.30640
C          0.58880       -2.20340        3.35170
C          1.46390       -2.74480        4.44110
C         -0.78930       -2.46230        3.38090
C         -1.61970       -1.95890        2.37840
C         -1.07780       -1.19770        1.34180
Pd         3.42060        0.08730       -0.02870
Br         3.42060       -2.50170       -0.10030
C          3.42060        2.23650        0.03060
C          4.33850        3.08590       -0.44810
N          5.52060        0.08730       -0.02870
C          6.25490       -0.95580       -0.55990
F          5.69420       -1.93820       -1.28990
C          7.65040       -0.97350       -0.51390
C          8.33280        0.04790        0.12190
C          7.61300        1.08960        0.68410
C          6.21820        1.10060        0.58460
H         -0.52670        1.68720        2.00630
H         -1.53010        3.56760        3.13320
H         -2.62020        4.53770        2.06440
H         -0.96210        5.13610        2.45660
H         -1.33280        5.29540       -0.22220
H         -0.33300        4.28130       -2.22790
H          0.58680        2.03400       -2.15130
H          2.86970       -0.56540       -2.14130
H          3.87900       -1.21860       -4.15580
H          2.91640       -0.73380       -5.60020
H          2.93730       -2.46110       -5.05610
H          0.31280       -1.66200       -5.41350
H         -1.67070       -1.24250       -4.00200
H         -1.40770       -0.50390       -1.67030
H          2.19080       -1.21810        2.28380
H          2.52700       -2.46630        4.28460
H          1.38810       -3.85220        4.46220
H          1.13270       -2.33850        5.42000
H         -1.22270       -3.04900        4.18230
H         -2.68470       -2.15380        2.40720
H         -1.74060       -0.80640        0.58300
H          2.50850        2.69320        0.39520
H          5.24230        2.75670       -0.94140
H          4.16400        4.15520       -0.38650
H          8.19840       -1.78190       -0.98270
H          9.41320        0.02800        0.17910
H          8.13070        1.87940        1.21270
H          5.71800        1.88940        1.11360
