84

P          0.93610       -0.05790       -0.05060
C          0.14220       -0.92330       -1.43580
C         -1.24170       -1.08960       -1.61650
C         -1.69880       -1.90290       -2.67870
C         -0.79110       -2.52560       -3.55840
C         -1.24730       -3.46010       -4.64270
C          0.57560       -2.28960       -3.40740
C          1.03060       -1.49090       -2.36490
C          0.53270       -1.36880        1.18130
C         -0.19600       -2.56100        0.92490
C         -0.57610       -3.41270        1.96390
C         -0.22880       -3.12130        3.28480
C         -0.67120       -4.02110        4.40500
C          0.52420       -1.97090        3.55190
C          0.89490       -1.10500        2.51350
C          0.28780        1.63150       -0.15140
C         -0.03630        2.32070        1.03190
C         -0.52000        3.63560        0.97400
C         -0.68990        4.27160       -0.26190
C         -1.15640        5.69910       -0.33670
C         -0.40260        3.56990       -1.44160
C          0.08380        2.25730       -1.38630
Pd         3.39610       -0.05790       -0.05060
Br         3.39610       -2.63720       -0.28570
C          3.39610        2.08320        0.14450
C          3.28950        2.57410        1.37730
P          5.85610       -0.05790       -0.05060
C          6.62020        0.37210        1.55870
C          6.32630       -0.52600        2.60600
C          6.71570       -0.26290        3.92160
C          7.40000        0.91190        4.22180
C          7.71690        1.80900        3.20210
C          7.34600        1.54270        1.87800
C          6.80850       -1.65700       -0.47540
C          6.23790       -2.73920       -1.19000
C          6.87930       -3.95180       -1.43300
C          8.20830       -4.09730       -1.10440
C          8.88840       -3.00630       -0.55950
C          8.20100       -1.80520       -0.23440
C          6.39480        1.45640       -0.95280
C          7.16860        1.21650       -2.10530
C          7.62620        2.27430       -2.89180
C          7.31460        3.58390       -2.55440
C          6.55870        3.81120       -1.39990
O          6.28370        4.95390       -1.07980
N          6.12370        2.75660       -0.62300
H         -1.94110       -0.65630       -0.92730
H         -2.76160       -2.06920       -2.79180
H         -2.34990       -3.57820       -4.64290
H         -0.79490       -4.46270       -4.47030
H         -0.91960       -3.09510       -5.63860
H          1.29450       -2.74480       -4.08090
H          2.09640       -1.34200       -2.27210
H         -0.52560       -2.86350       -0.05020
H         -1.16270       -4.29450        1.73380
H         -1.27930       -4.87340        4.03020
H         -1.29730       -3.44900        5.12300
H          0.21230       -4.42880        4.93680
H          0.80210       -1.73080        4.57000
H          1.44570       -0.20590        2.75900
H          0.09680        1.84640        1.99510
H         -0.74510        4.15270        1.89800
H         -1.34460        6.12600        0.67190
H         -2.08780        5.77970       -0.93520
H         -0.36440        6.30990       -0.82220
H         -0.54890        4.04430       -2.40430
H          0.30190        1.73880       -2.31000
H          3.49470        2.73370       -0.71840
H          3.21190        1.88360        2.21150
H          3.30180        3.64200        1.55940
H          5.76090       -1.43020        2.40980
H          6.46390       -0.95890        4.71280
H          7.67640        1.13100        5.24560
H          8.23820        2.72650        3.44230
H          7.61210        2.28670        1.15440
H          5.29890       -2.69700       -1.63520
H          6.34260       -4.76970       -1.90830
H          8.70780       -5.03580       -1.32700
H          9.95170       -3.10980       -0.39280
H          8.77240       -0.99380        0.18560
H          7.42660        0.20400       -2.40130
H          8.21720        2.06260       -3.78640
H          7.65750        4.40200       -3.18570
H          5.60290        2.99290        0.24220
