22

P          0.97420       -0.09130        0.03150
Cl        -0.82410       -0.25240       -0.98810
Cl         0.83960       -2.08800        0.59460
Cl         0.15490        1.28170        1.36090
Pd         3.43420       -0.09130        0.03150
Br         3.28130       -2.08580       -1.48120
C          3.30800        1.53720        1.31530
C          2.80210        2.71340        0.95190
N          5.53420       -0.09130        0.03150
C          6.28690        0.95960        0.53030
F          5.73210        2.08670        1.01010
C          7.67840        0.95740        0.48800
C          8.34280       -0.15020       -0.02940
C          7.61850       -1.21880       -0.51740
C          6.21750       -1.16010       -0.49870
H          3.66330        1.40230        2.33370
H          2.42230        2.86160       -0.05120
H          2.74660        3.52030        1.67700
H          8.24230        1.80740        0.84540
H          9.42530       -0.17220       -0.04590
H          8.11560       -2.08980       -0.90500
H          5.72430       -2.02900       -0.87990
