73

P          1.00790        0.07530        0.06530
C         -0.19410       -0.64500        1.50000
C         -0.35000       -2.16360        1.86630
C          0.77030       -2.77270        2.77860
C          0.84760       -2.05450        4.14410
C          0.85430       -0.51460        4.04740
C         -0.14900       -0.01870        2.96480
C          0.44600        1.91750        0.05280
C         -1.11840        2.04730       -0.07990
C         -1.90010        2.20550        1.25540
C         -1.41700        3.45050        2.00450
C          0.11530        3.46620        2.24050
C          0.91470        3.12100        0.95570
C          0.52550       -1.00790       -1.42970
C         -0.19870       -0.52210       -2.61310
C         -0.53580        0.89740       -2.99360
C         -0.66970       -1.40660       -3.59330
C         -0.45250       -2.76470       -3.53780
C         -1.00000       -3.70070       -4.57990
C          0.30190       -3.26720       -2.49940
C          0.82220       -2.42160       -1.47910
C          1.67710       -3.20700       -0.50390
Pd         3.46790        0.07530        0.06530
Br         3.46790        1.35290       -2.18770
C          3.46790       -0.98520        1.93550
C          4.52420       -1.69070        2.33020
O          5.51790        0.07530        0.06530
C          6.16170        0.49710       -1.11090
C          7.67140        0.56570       -0.87240
C          5.93440       -0.54260       -2.23440
H         -1.18140       -0.42340        1.06520
H         -0.62420       -2.75290        0.97860
H         -1.27060       -2.27580        2.48840
H          1.74170       -2.80940        2.28700
H          0.56300       -3.84460        2.97730
H          1.72360       -2.41320        4.74170
H         -0.06390       -2.34530        4.70000
H          1.84220       -0.04630        3.92320
H          0.58300       -0.10990        5.04980
H         -0.07570        1.02600        2.93570
H         -1.13300       -0.24000        3.43820
H          0.96900        2.21420       -0.86560
H         -1.54860        1.19050       -0.62900
H         -1.34240        2.95980       -0.66320
H         -1.88540        1.34520        1.91480
H         -2.98630        2.31910        1.03330
H         -1.95530        3.54850        2.97260
H         -1.68870        4.32190        1.37960
H          0.44090        2.87130        3.09610
H          0.38550        4.48810        2.57770
H          2.00070        3.13130        1.13540
H          0.69880        4.02370        0.32730
H         -0.13170        1.68190       -2.40130
H         -1.63970        1.02690       -3.04060
H         -0.11710        1.10080       -4.00420
H         -1.22350       -1.02790       -4.45140
H         -1.55960       -3.15730       -5.37050
H         -1.69240       -4.43030       -4.10760
H         -0.16790       -4.25880       -5.05590
H          0.47840       -4.33650       -2.49480
H          1.85280       -4.25970       -0.81770
H          1.19730       -3.39980        0.41730
H          2.66730       -2.72910       -0.37650
H          2.58380       -1.03240        2.42930
H          5.40030       -1.75730        1.69520
H          4.45730       -2.32190        3.21030
H          5.85980        1.53130       -1.35400
H          8.07850       -0.44560       -0.64900
H          7.90760        1.23850       -0.02460
H          8.17850        0.94910       -1.78620
H          6.40650       -1.51290       -1.97750
H          6.36600       -0.17020       -3.18810
H          4.87150       -0.79090       -2.40470
