64

P          0.96810       -0.06480        0.06920
C          0.01230        0.05770       -1.48370
C         -1.01510       -0.82070       -1.87050
C         -1.45410       -0.83860       -3.20450
C         -0.85960       -0.01710       -4.16530
C          0.13300        0.88100       -3.79000
C          0.53390        0.94810       -2.45470
C          0.61680       -1.75890        0.61470
C          0.95110       -2.84600       -0.20870
C          0.59180       -4.15270        0.15770
C         -0.09340       -4.37590        1.35220
C         -0.41740       -3.30680        2.18670
C         -0.05860       -2.00200        1.82300
C          0.33620        1.39470        0.95600
C          1.02310        2.64070        0.98490
O          2.23480        2.75880        0.38890
C          2.94890        3.94060        0.28890
C          0.41160        3.73570        1.61870
C         -0.86570        3.61900        2.19990
C         -1.52630        2.40510        2.15550
C         -0.94710        1.30440        1.52130
Pd         3.42810       -0.06480        0.06920
Br         3.42810       -0.24710        2.65280
C          3.42810        0.08660       -2.07550
C          4.28220        0.43630       -3.05780
N          5.52810       -0.06480        0.06920
C          6.29110       -0.86430        0.92730
N          5.74080       -1.95460        1.72310
C          6.42610       -2.46140        2.91120
C          4.54950       -2.70860        1.33950
C          7.70210       -0.74470        0.88370
C          8.31370        0.19750        0.07590
C          7.53530        1.03120       -0.70030
C          6.15180        0.87100       -0.70030
H         -1.43320       -1.51540       -1.16440
H         -2.22800       -1.53250       -3.50690
H         -1.15090       -0.08800       -5.20920
H          0.62150        1.49460       -4.53730
H          1.34640        1.62490       -2.20870
H          1.45810       -2.68350       -1.15200
H          0.83280       -4.98570       -0.48940
H         -0.38740       -5.38610        1.63190
H         -0.95270       -3.48050        3.11030
H         -0.32870       -1.19460        2.48330
H          3.90960        3.75260       -0.23270
H          3.17150        4.34800        1.29910
H          2.37210        4.69240       -0.29480
H          0.87230        4.71560        1.66290
H         -1.31980        4.46880        2.68270
H         -2.51740        2.32750        2.60020
H         -1.50800        0.39240        1.47200
H          2.51320       -0.28600       -2.47620
H          5.28090        0.81410       -2.99540
H          3.94410        0.36320       -4.08570
H          7.32860       -1.88720        3.18880
H          6.70660       -3.52780        2.77210
H          5.75140       -2.38130        3.78910
H          4.04020       -2.28300        0.45510
H          3.83690       -2.78120        2.19110
H          4.82310       -3.76230        1.12290
H          8.35940       -1.39550        1.43970
H          9.39310        0.28400        0.06730
H          8.00140        1.81510       -1.28290
H          5.56870        1.61450       -1.20580
