85

P          1.07540       -0.02410        0.06110
C          0.24940       -0.47260       -1.64040
C          0.72890       -1.73940       -2.37560
C          0.09860       -2.99810       -1.78750
C         -1.43440       -2.89550       -1.88940
C         -2.02410       -1.55400       -1.36810
C         -1.26410       -0.35010       -1.89350
C          0.78820       -1.57100        1.25820
C          1.39380       -1.32820        2.67180
C          0.51760       -0.42750        3.54960
C         -0.90390       -1.03480        3.77960
C         -1.61360       -1.59400        2.51640
C         -0.58710       -2.31630        1.60680
C          0.54910        1.85280        0.15910
C         -0.42620        2.35810        1.10450
C         -1.29330        1.52360        1.92080
C         -0.71520        3.71130        1.27510
C         -0.14150        4.67120        0.48980
C         -0.46490        6.12040        0.75980
C          0.69320        4.25410       -0.54710
C          1.04180        2.88020       -0.73270
C          1.93610        2.62530       -1.90840
Pd         3.53540       -0.02410        0.06110
Br         3.53540       -2.46360       -0.80900
C          3.53540        2.00090        0.78330
C          3.30880        2.21420        2.08040
C          5.68540       -0.02410        0.06110
N          6.49540        1.01300        0.31040
C          6.20890        2.42010        0.56310
C          7.42820        3.36400        0.72210
C          7.89120        0.65760        0.24020
C          7.93400       -0.80510        0.15530
N          6.58660       -1.17380       -0.17320
C          6.35190       -2.58900       -0.46610
C          7.58620       -3.51370       -0.46340
H          0.64390        0.33950       -2.28450
H          1.81410       -1.75720       -2.46100
H          0.41240       -1.69460       -3.44120
H          0.42040       -3.14610       -0.76200
H          0.45630       -3.90000       -2.32930
H         -1.90510       -3.75740       -1.36650
H         -1.68000       -2.97720       -2.96660
H         -2.03060       -1.41070       -0.29070
H         -3.09500       -1.49560       -1.66910
H         -1.67520        0.61150       -1.52340
H         -1.42150       -0.35410       -3.00050
H          1.42730       -2.35590        0.84450
H          2.42140       -0.92610        2.59360
H          1.47000       -2.29880        3.21510
H          0.57350        0.56210        3.09280
H          0.98170       -0.28540        4.54840
H         -1.57940       -0.32840        4.31850
H         -0.76070       -1.90620        4.44470
H         -2.23930       -0.88230        1.95580
H         -2.42090       -2.28670        2.84460
H         -1.08830       -2.80940        0.77010
H         -0.31690       -3.21050        2.20510
H         -0.99580        0.55510        1.60290
H         -2.35980        1.68310        1.64960
H         -1.18490        1.73450        3.00730
H         -1.43300        4.01810        2.03720
H         -1.13380        6.23560        1.64760
H         -0.97880        6.58410       -0.10460
H          0.46740        6.67360        0.99230
H          1.09500        5.01500       -1.20750
H          2.80600        3.31220       -1.88890
H          1.35820        2.84860       -2.83350
H          2.32520        1.59590       -1.94770
H          3.65720        2.84970        0.13160
H          3.18450        1.37390        2.75240
H          3.28740        3.22500        2.47430
H          5.71950        2.53770        1.54150
H          5.68080        2.83360       -0.31770
H          8.04420        3.08640        1.59940
H          7.07230        4.40280        0.88140
H          8.06210        3.36470       -0.19840
H          8.51740        0.96620        1.11930
H          8.29650        1.12160       -0.69730
H          8.16030       -1.24890        1.15140
H          8.69940       -1.10850       -0.59220
H          5.96530       -2.66860       -1.50320
H          5.71540       -3.02000        0.33320
H          8.33210       -3.20810       -1.22460
H          7.26410       -4.54790       -0.71680
H          8.05360       -3.54420        0.54290
