58

P          0.96320       -0.03920        0.08430
C         -0.05440        0.34050        1.66630
C         -1.59030        0.49600        1.58100
C          0.18730       -0.80230        2.68270
C          0.45530        1.66730        2.28320
C          0.73920        1.44850       -0.94030
C          1.85270        2.20750       -1.32780
C          1.69010        3.38110       -2.07590
C          0.41230        3.81300       -2.43690
C         -0.70500        3.06110       -2.06660
C         -0.53800        1.87870       -1.33890
C          0.35920       -1.69970       -0.34340
C         -1.01530       -1.89560       -0.58580
C         -1.54210       -3.17910       -0.72970
C         -0.69640       -4.28520       -0.67240
C          0.67870       -4.10380       -0.47670
C          1.20660       -2.81170       -0.30200
Pd         3.42320       -0.03920        0.08430
Br         3.23130       -0.87400       -2.26930
C          3.56570        0.47920        2.08080
C          3.62430       -0.48000        3.00730
N          5.52320       -0.03920        0.08430
C          6.20060       -0.54240       -0.99980
C          7.59310       -0.66150       -1.01840
C          8.34570       -0.22760        0.07640
O          9.69720       -0.33700        0.13700
C         10.48840       -0.98720       -0.78620
C          7.67510        0.32790        1.15450
C          6.28200        0.40420        1.15010
H         -2.11250       -0.43410        1.31060
H         -1.90510        1.35020        0.96370
H         -1.98740        0.72690        2.59790
H         -0.23800       -1.76150        2.32180
H         -0.26810       -0.57940        3.67280
H          1.24980       -0.98000        2.85600
H          0.32140        2.51590        1.58200
H          1.50770        1.63220        2.56600
H         -0.07790        1.91110        3.22830
H          2.85080        1.90810       -1.04800
H          2.55090        3.96120       -2.36590
H          0.27970        4.72720       -3.00280
H         -1.69320        3.39400       -2.34210
H         -1.42060        1.32150       -1.07990
H         -1.69480       -1.06320       -0.63600
H         -2.60660       -3.31860       -0.87570
H         -1.10550       -5.28300       -0.77230
H          1.32810       -4.96750       -0.42790
H          2.26250       -2.69950       -0.10350
H          3.72570        1.50810        2.37170
H          3.54170       -1.52560        2.72340
H          3.76310       -0.23160        4.05700
H          5.70570       -0.92240       -1.86210
H          8.06700       -1.10640       -1.88310
H         11.54810       -0.92250       -0.46630
H         10.38620       -0.51370       -1.78480
H         10.20100       -2.06000       -0.84090
H          8.22980        0.68600        2.01390
H          5.87320        0.84120        2.03580
