63

P          1.07450       -0.01560        0.06490
C         -0.11000       -1.40800        0.17740
C          0.78400        0.61230        1.75340
C          0.19330        0.79660       -1.31360
Pd         3.53450       -0.01560        0.06490
Br         3.53450       -1.21230        2.36190
C          3.53450        0.97780       -1.84180
C          2.82850        0.52900       -2.88110
P          5.99450       -0.01560        0.06490
C          6.88620       -0.95680        1.54380
C          6.29430       -2.41840        1.53340
C          8.40500       -1.26700        1.75960
C          6.48780       -0.21830        2.85120
C          6.41200       -0.97250       -1.60610
C          5.98310       -0.24790       -2.89480
C          7.91550       -1.26080       -1.86360
C          5.71290       -2.35620       -1.64430
C          6.40800        1.82830        0.12640
C          7.87550        2.46520        0.09410
C          8.66480        2.09870       -1.16780
C          7.75300        4.00070        0.14400
C          8.75880        2.09340        1.28260
H         -1.14920       -1.06970        0.34380
H          0.20720       -2.06640        1.01800
H         -0.04330       -2.00730       -0.75770
H         -0.30860        0.72840        1.91410
H          1.26610        1.60250        1.87570
H          1.14410       -0.08640        2.52600
H         -0.88910        0.84620       -1.06020
H          0.26350        0.21390       -2.24960
H          0.55140        1.83480       -1.45010
H          4.07080        1.91110       -1.95040
H          2.28230       -0.40190       -2.80730
H          2.82800        1.07950       -3.81690
H          6.92200       -3.08050        0.91330
H          5.28130       -2.52590        1.13020
H          6.33760       -2.88820        2.54150
H          8.94390       -1.71610        0.92120
H          8.50690       -2.03470        2.56340
H          9.00960       -0.50730        2.26260
H          5.49260        0.22410        2.87170
H          7.12590        0.66410        2.99680
H          6.63270       -0.86280        3.74380
H          6.25280        0.82720       -2.88060
H          4.94820       -0.45120       -3.13020
H          6.45110       -0.69910       -3.79910
H          8.46600       -0.41170       -2.27420
H          8.03420       -1.99360       -2.69500
H          8.42470       -1.72590       -1.02670
H          4.62800       -2.26040       -1.43870
H          6.15250       -3.09820       -0.97300
H          5.83000       -2.82970       -2.64540
H          5.92810        2.19940        1.05840
H          5.86420        2.28460       -0.71840
H          8.08590        2.28910       -2.09400
H          8.97970        1.06040       -1.07600
H          9.62600        2.65570       -1.22160
H          7.18540        4.38080       -0.72650
H          8.76100        4.47160        0.13110
H          7.24910        4.31970        1.08010
H          9.03880        1.06640        1.14110
H          8.28050        2.30220        2.25820
H          9.73540        2.62440        1.26960
