75

P          0.95780       -0.06070        0.06730
C          0.37500       -1.37320       -1.25570
C         -1.06420       -1.65640       -1.79420
C         -1.51000       -0.73390       -2.97400
C         -0.51510       -0.67570       -4.11400
C          0.85580       -0.33320       -3.55110
C          1.26040       -1.41750       -2.52080
C          0.31770       -0.66180        1.77280
C          0.61820        0.41840        2.84780
C         -0.46610        1.51430        2.92330
C         -1.77480        0.90950        3.44630
C         -2.26720       -0.20550        2.52620
C         -1.14140       -1.20180        2.09930
C          0.35920        1.60680       -0.59360
C         -1.05240        1.91350       -0.83970
C         -2.23120        1.05510       -0.52920
C         -1.45530        3.17150       -1.28710
C         -0.56950        4.20860       -1.45310
C         -1.04710        5.54600       -1.91960
C          0.76490        4.00790       -1.10570
C          1.23910        2.75790       -0.64080
C          2.62870        2.80150       -0.11060
Pd         3.41780       -0.06070        0.06730
Br         3.41780        0.76160       -2.38870
C          3.41780       -0.74330        2.10610
C          3.38160       -2.04260        2.39730
N          5.51780       -0.06070        0.06730
C          5.83770       -1.41620       -0.43580
C          6.14030        0.85470       -0.91540
C          6.12970        0.01010        1.41280
H          0.65730       -2.30260       -0.71380
H         -1.80870       -1.76680       -0.99050
H         -1.03390       -2.67450       -2.25010
H         -1.56160        0.30520       -2.69460
H         -2.50370       -1.05250       -3.35370
H         -0.83120        0.10990       -4.84150
H         -0.46570       -1.64560       -4.64830
H          0.81710        0.67540       -3.08330
H          1.57570       -0.29510       -4.39630
H          2.30910       -1.44530       -2.19970
H          1.16140       -2.39670       -3.04390
H          0.93680       -1.56160        1.92130
H          1.58460        0.91070        2.65720
H          0.66670       -0.06570        3.84970
H         -0.61050        2.00330        1.93920
H         -0.14610        2.29540        3.64590
H         -2.56040        1.69720        3.53880
H         -1.59340        0.49730        4.45910
H         -2.77060        0.25680        1.70440
H         -3.11010       -0.74350        3.01540
H         -1.51230       -1.92710        1.34730
H         -1.00780       -1.78660        3.03660
H         -1.89980        0.10190       -0.13500
H         -2.95240        0.90850       -1.35840
H         -2.85000        1.61280        0.20440
H         -2.51290        3.36230       -1.47730
H         -2.14150        5.53910       -2.12500
H         -0.52070        5.81790       -2.85620
H         -0.84900        6.30580       -1.13720
H          1.43570        4.85210       -1.14940
H          3.33990        3.13830       -0.88960
H          2.94910        1.87810        0.34950
H          2.64780        3.53800        0.71950
H          3.62490       -0.04270        2.90860
H          3.29730       -2.77800        1.60620
H          3.46850       -2.36850        3.42960
H          5.38480       -1.58350       -1.43730
H          5.40650       -2.19620        0.22700
H          6.93860       -1.58510       -0.50690
H          5.96890        0.57210       -1.97230
H          7.24660        0.87700       -0.80040
H          5.76580        1.88570       -0.74060
H          5.90460       -0.86760        2.05190
H          5.77580        0.93110        1.92340
H          7.23900        0.06720        1.35080
