54

P          1.00700        0.04640       -0.08830
C          0.26380        1.51510       -0.95720
C         -0.61740        1.41360       -2.05150
C         -0.99390        2.55880       -2.79200
C         -0.49150        3.81790       -2.46580
C          0.35180        3.94190       -1.36370
C          0.69600        2.80800       -0.61890
C          0.70440       -1.24170       -1.34090
C          1.27970       -1.09590       -2.62240
C          1.31060       -2.17200       -3.51010
C          0.75120       -3.39330       -3.14490
C          0.12580       -3.53070       -1.88920
C          0.10700       -2.45670       -0.99110
C          0.21080        0.39650        1.52290
C          0.74210       -0.15140        2.71740
O          1.91200       -0.84210        2.67690
C          2.47640       -1.51180        3.74840
C          0.01730       -0.01020        3.92310
C         -1.22150        0.62750        3.94970
C         -1.76140        1.13380        2.77480
C         -1.06530        1.01320        1.57560
Pd         3.46700        0.04640       -0.08830
Br         3.46700        2.33430        1.12570
C          3.46700       -1.85280       -1.09610
C          4.47160       -2.38360       -1.79470
O          5.51700        0.04640       -0.08830
C          6.26960        0.28080       -1.13470
C          7.59100        0.20970       -0.74440
C          7.58190       -0.11750        0.59650
C          6.25500       -0.17480        0.97090
H         -1.01100        0.45830       -2.36770
H         -1.65770        2.47570       -3.64170
H         -0.73230        4.69900       -3.04640
H          0.77120        4.90270       -1.09410
H          1.31750        2.99170        0.20910
H          1.78320       -0.17170       -2.89840
H          1.81840       -2.07720       -4.46070
H          0.82680       -4.24730       -3.80300
H         -0.28460       -4.49070       -1.60300
H         -0.31850       -2.60000        0.00010
H          3.41560       -2.00570        3.42730
H          1.77950       -2.29530        4.12280
H          2.71230       -0.80080        4.56990
H          0.38490       -0.42180        4.85810
H         -1.77440        0.70600        4.87600
H         -2.73720        1.60160        2.78850
H         -1.56080        1.37970        0.69380
H          2.63600       -2.51640       -1.00500
H          5.39910       -1.87880       -1.98560
H          4.33940       -3.37420       -2.22620
H          5.89860        0.54720       -2.11640
H          8.46000        0.38280       -1.36660
H          8.44310       -0.29480        1.22610
H          5.86960       -0.43530        1.94810
