50

P          1.27500        0.00000        0.00000
N          0.28570        1.21200        0.84730
C         -1.15220        1.08030        0.71550
C         -1.48010       -0.13780       -0.12300
C         -3.01230       -0.25300       -0.21810
C         -0.84470        0.08310       -1.55440
N          0.61870        0.37470       -1.57590
N          0.59720       -1.34150        0.88980
C         -0.86620       -1.40520        0.59820
Pd         3.73500        0.00030       -0.00050
Br         3.73500       -2.14090       -1.45760
C          3.73500        1.77780        1.20910
C          4.37030        2.90500        0.88200
C          5.88500        0.00060       -0.00090
N          6.72790       -0.62920       -0.91170
C          6.59700       -1.37780       -2.16620
C          7.98910       -0.32390       -0.55710
C          7.96890        0.47650        0.52220
N          6.69650        0.68440        0.90270
C          6.48100        1.42880        2.13100
C          7.25750        2.57850        2.39920
C          7.03290        3.34730        3.54400
C          6.03900        2.97600        4.45020
C          5.29630        1.81520        4.23010
C          5.52850        1.03070        3.09020
H          0.59700        2.16950        0.56090
H         -1.57340        2.00550        0.25720
H         -1.58400        0.99560        1.73740
H         -3.44270        0.66740       -0.67420
H         -3.45650       -0.35410        0.79820
H         -3.31180       -1.12710       -0.82790
H         -1.37050        0.92800       -2.05660
H         -1.03870       -0.81970       -2.16810
H          0.79030        1.39170       -1.75480
H          0.76630       -1.16770        1.90720
H         -1.40310       -1.56700        1.56170
H         -1.06890       -2.29640       -0.03080
H          3.09830        1.77450        2.08890
H          4.99770        2.95880        0.00130
H          4.28740        3.76960        1.53600
H          5.65160       -1.24460       -2.69080
H          6.92950       -2.43110       -2.02870
H          7.27630       -0.92550       -2.92300
H          8.88240       -0.64590       -1.08190
H          8.85500        0.86040        1.01550
H          8.02040        2.91200        1.70760
H          7.61720        4.24010        3.72450
H          5.84870        3.58850        5.32310
H          4.52460        1.52860        4.93510
H          4.93790        0.13910        2.93130
