67

P          0.90720        0.00360       -0.03710
O          0.31430        0.89960       -1.38140
C          0.75280        2.25760       -1.33220
C          0.39860        2.95470       -2.65010
O          0.51570       -1.55820        0.53510
C         -0.79460       -1.83610        0.05150
C         -1.10440       -3.32330        0.09790
C         -0.07460        0.76870        1.32120
C         -1.12490        1.68500        1.10850
C         -1.62570        2.44940        2.17270
C         -1.10730        2.29310        3.45990
C         -0.12250        1.34050        3.69500
C          0.37710        0.58430        2.63830
Pd         3.36720        0.00360       -0.03710
Br         3.51410       -0.78980        2.30070
C          3.67720        0.75800       -1.99980
C          2.83760        0.87110       -3.01780
P          5.82720        0.00360       -0.03710
N          6.86980       -1.12200        0.86460
C          6.49820       -2.45850        0.31130
C          8.30830       -0.96730        0.87840
O          6.04580        1.25830        1.00540
C          6.21860        2.47260        0.42150
C          5.40710        3.50800        0.90270
C          5.44720        4.78330        0.33610
C          6.32480        5.05150       -0.70100
C          7.16450        4.06310       -1.17940
C          7.14840        2.74730       -0.66050
C          8.09120        1.77010       -1.32400
C          9.41010        2.19240       -1.60600
C         10.32170        1.34740       -2.25280
C          9.92740        0.08620       -2.68030
C          8.62440       -0.34050       -2.45190
C          7.71220        0.47610       -1.76790
O          6.49910       -0.02700       -1.55110
H          1.83970        2.35160       -1.14490
H          0.25750        2.85010       -0.54930
H          0.89770        2.49360       -3.52350
H          0.70860        4.02000       -2.61210
H         -0.69580        2.90220       -2.82560
H         -0.93680       -1.53250       -1.01480
H         -1.54660       -1.32250        0.68840
H         -0.43700       -3.87990       -0.59200
H         -2.15720       -3.48040       -0.22930
H         -0.99360       -3.71110        1.13060
H         -1.52630        1.86450        0.12210
H         -2.39020        3.19270        1.99330
H         -1.46230        2.90880        4.27590
H          0.28790        1.20920        4.68910
H          1.15210       -0.10430        2.86230
H          4.67050        1.08370       -2.25810
H          1.83790        0.50450       -2.98090
H          3.19350        1.29920       -3.95200
H          5.39680       -2.62260        0.34670
H          6.96030       -3.28510        0.89100
H          6.80790       -2.55250       -0.75480
H          8.58630        0.03830        1.24810
H          8.76880       -1.20210       -0.09420
H          8.72770       -1.71980        1.58190
H          4.70440        3.31230        1.70270
H          4.78540        5.55700        0.70350
H          6.34320        6.04260       -1.15160
H          7.82140        4.31500       -2.00920
H          9.75590        3.16910       -1.29850
H         11.33720        1.68070       -2.43180
H         10.62780       -0.56780       -3.18360
H          8.32080       -1.32760       -2.78060
