36

P          1.27500        0.00000        0.00000
N          0.22690        1.42130       -0.22090
C         -1.20010        1.16830       -0.26990
C         -1.47150       -0.29550        0.01950
C         -2.99500       -0.50800        0.03920
C         -0.79980       -1.13980       -1.13520
N          0.64280       -0.85160       -1.38810
N          0.61750       -0.37100        1.57530
C         -0.84350       -0.64030        1.43020
Pd         3.73500        0.00030       -0.00050
Br         3.73540       -2.53550        0.52630
C          3.73460        2.10540       -0.43770
C          3.72370        2.56170       -1.68710
N          5.83500        0.00060       -0.00090
C          6.68140       -1.01450        0.28070
O          7.93830       -0.64160        0.17150
C          7.93780        0.61970       -0.18620
C          6.63570        1.04060       -0.29790
H          0.53230        1.94220       -1.07590
H         -1.60500        1.45240       -1.27170
H         -1.68870        1.82930        0.48000
H         -3.43950       -0.21860       -0.93950
H         -3.46470        0.13380        0.81910
H         -3.24570       -1.56480        0.24860
H         -1.35380       -0.96220       -2.08560
H         -0.91980       -2.21560       -0.89420
H          0.75680       -0.23040       -2.22090
H          0.77490        0.46790        2.18090
H         -1.38620       -0.06610        2.21780
H         -1.02390       -1.71330        1.63910
H          3.71960        2.80470        0.39180
H          3.72880        1.87340       -2.52340
H          3.71320        3.63250       -1.86930
H          6.38570       -2.01150        0.56000
H          8.82790        1.21630       -0.36170
H          6.31480        2.03370       -0.57540
