68

P          0.92460       -0.02570       -0.06050
C          0.56690        0.80970       -1.64420
C         -0.75060        0.84640       -2.14650
C         -1.04380        1.39840       -3.39140
C         -0.02460        1.90660       -4.18470
C          1.29970        1.86700       -3.71760
C          1.59290        1.32820       -2.45200
C          0.51580       -1.80560       -0.02010
C          1.15290       -2.71200        0.84330
C          0.72650       -4.04840        0.90610
C         -0.32000       -4.49820        0.09270
C         -0.91790       -3.62300       -0.80860
C         -0.49330       -2.29760       -0.87480
C         -0.19720        0.86730        1.21970
C         -1.73390        0.93920        1.05990
C         -2.39630       -0.41240        1.34910
C         -2.09070       -0.87900        2.78390
C         -0.60100       -0.87770        3.09640
C          0.03550        0.45030        2.72030
Pd         3.38460       -0.02570       -0.06050
Br         3.38460       -1.62720       -2.09600
C          3.38460        1.30380        1.62920
C          4.32090        2.17590        2.01780
C          5.53460       -0.02570       -0.06050
N          6.31780        0.00280        1.07880
C          5.97180       -0.10730        2.51740
C          6.56260       -1.35610        3.19570
C          7.59610       -0.04600        0.67350
C          7.62160       -0.16420       -0.69160
N          6.35560       -0.18130       -1.14630
C          6.09100       -0.18400       -2.58340
C          6.48920       -1.53170       -3.19360
H         -1.57460        0.42110       -1.61060
H         -2.06650        1.41040       -3.74770
H         -0.24930        2.31090       -5.15850
H          2.09300        2.23980       -4.34980
H          2.62360        1.28870       -2.12540
H          1.94390       -2.37380        1.49850
H          1.18890       -4.73660        1.60050
H         -0.66850       -5.52200        0.15520
H         -1.72640       -3.96240       -1.44440
H         -1.00220       -1.66210       -1.57340
H          0.16100        1.91820        1.13750
H         -2.04250        1.38750        0.10820
H         -2.12690        1.66340        1.81070
H         -2.04910       -1.14880        0.62170
H         -3.49640       -0.32500        1.23160
H         -2.49050       -1.90190        2.95010
H         -2.58550       -0.18190        3.49310
H         -0.10200       -1.67760        2.56640
H         -0.43650       -1.07560        4.17980
H          1.07170        0.37240        3.04840
H         -0.43190        1.22030        3.37690
H          2.49520        1.38540        2.18190
H          5.27790        2.27510        1.52910
H          4.12230        2.80330        2.88580
H          4.88880       -0.23780        2.66940
H          6.35690        0.77780        3.06570
H          6.16560       -2.28760        2.73840
H          6.26830       -1.35440        4.27020
H          7.67090       -1.36870        3.15740
H          8.46610       -0.06710        1.31740
H          8.51330       -0.23550       -1.29600
H          6.67950        0.62290       -3.07650
H          5.05340        0.10080       -2.79870
H          7.58140       -1.69060       -3.09760
H          6.21110       -1.56010       -4.26600
H          5.98090       -2.36720       -2.66590
