65

C          0.90100       -0.64300       -0.00200
N         -0.36340       -1.23160        0.12640
C         -0.82360       -2.65480        0.28410
C         -0.06170       -3.71660        0.94860
C          1.16290       -3.58900        1.82000
C         -0.49660       -5.04830        0.90720
C         -1.67100       -5.42040        0.30470
C         -2.04240       -6.87030        0.21350
C         -2.50690       -4.44090       -0.18720
C         -2.14110       -3.08010       -0.19200
C         -3.24380       -2.18190       -0.71650
C         -1.21240       -0.17280        0.10950
C         -0.55890        1.00470        0.01400
N          0.75610        0.78680        0.00020
C          1.81890        1.83810       -0.07200
C          1.78330        3.27900        0.08650
C          0.60130        4.14430        0.40290
C          3.00460        4.02380        0.00320
C          4.23850        3.39580       -0.22180
C          5.55390        4.11730       -0.25770
C          4.25220        2.03680       -0.37490
C          3.06150        1.33320       -0.27910
C          3.03300       -0.05400       -0.37210
Pd         2.65840       -1.88140       -0.01350
Br         1.72970       -3.18050       -2.05260
C          3.42940       -0.80310        1.67920
C          2.98410        0.26150        2.40490
N          4.37500       -3.09110       -0.02470
C          5.58440       -2.60050        0.40790
C          6.75540       -3.35600        0.32550
Cl         8.28750       -2.66750        0.83630
C          6.70280       -4.64150       -0.19530
C          5.48570       -5.14690       -0.63710
C          4.33570       -4.35360       -0.55660
H          0.96850       -2.83550        2.61800
H          2.07990       -3.47850        1.23150
H          1.38440       -4.49750        2.42040
H          0.09760       -5.83510        1.35950
H         -1.22690       -7.52300        0.59590
H         -2.19660       -7.12770       -0.85590
H         -2.96630       -7.07600        0.78810
H         -3.46450       -4.76000       -0.58270
H         -4.13910       -2.73840       -1.06720
H         -2.90160       -1.54890       -1.55680
H         -3.67120       -1.60090        0.12990
H         -2.26790       -0.15610        0.19640
H         -1.07670        1.93210       -0.04130
H         -0.34500        3.65090        0.57810
H          0.46920        4.89040       -0.40960
H          0.82000        4.68120        1.34930
H          3.00310        5.09730        0.13720
H          5.43650        5.19660       -0.04650
H          6.04910        3.98070       -1.24450
H          6.21700        3.67550        0.52070
H          5.19300        1.51620       -0.54740
H          4.08270       -0.42050       -0.55630
H          2.69690       -0.25240       -1.43140
H          1.79870       -1.44400        1.31770
H          4.31440       -1.20570        2.13700
H          2.06170        0.77540        2.19140
H          3.54710        0.60750        3.26570
H          5.70600       -1.59070        0.74640
H          7.60290       -5.23820       -0.27140
H          5.43420       -6.14590       -1.04980
H          3.41640       -4.78640       -0.90270
