91

P         -1.35000        0.00100        0.79800
N         -0.30750       -1.43060        0.35020
C         -1.08280       -2.54440       -0.25260
C          1.09090       -1.49300       -0.15320
C          1.93180       -0.27680        0.02810
N          1.39850        0.97000       -0.57370
C          0.47220        1.20810       -1.71670
C         -0.70940        0.23370       -1.92580
N         -1.82360        0.25690       -0.92160
C         -2.70290        1.40760       -1.13240
N         -0.06570        0.91130        1.72300
C         -0.26110        0.96480        3.16720
C          0.37350        2.24050        1.18170
C          1.61240        2.10980        0.29120
Pd        -3.32260        0.00260        2.26790
Br        -3.69180        2.51730        1.76970
C         -3.01610       -2.08490        2.68140
C         -2.77790       -2.33340        3.97370
C         -5.04660        0.00400        3.55250
N         -5.78120        1.06680        4.01810
C         -5.85010        2.50820        3.77170
C         -7.10310        3.04590        3.25440
C         -8.42290        2.32800        3.01910
C         -7.18910        4.39040        2.86120
C         -6.11030        5.23630        2.93810
C         -6.23140        6.59860        2.29850
C         -4.94350        4.79300        3.57800
C         -4.81180        3.45810        4.06950
C         -3.47470        3.05940        4.66910
C         -6.73730        0.58140        4.93460
C         -7.08220       -0.77170        4.43130
N         -5.80080       -1.24240        3.97380
C         -5.62590       -2.70760        3.87620
C         -5.23320       -3.47130        2.69840
C         -5.22530       -2.92740        1.26220
C         -4.69390       -4.78190        2.87030
C         -4.66580       -5.40470        4.12980
C         -3.96520       -6.70860        4.40040
C         -5.30610       -4.78500        5.18800
C         -5.80200       -3.50880        5.09720
C         -6.47030       -3.05460        6.38210
H         -2.16120       -2.31460       -0.36140
H         -0.94120       -3.47080        0.33780
H         -0.74150       -2.79450       -1.28560
H          1.17790       -1.78380       -1.21780
H          1.59460       -2.32490        0.39130
H          2.95630       -0.47530       -0.35380
H          2.04920       -0.17590        1.13220
H          1.07510        1.24060       -2.64480
H          0.01520        2.22060       -1.63100
H         -0.36400       -0.77880       -2.13480
H         -1.13190        0.48160       -2.92270
H         -2.84770        1.60590       -2.21920
H         -2.28370        2.32550       -0.68270
H         -3.71330        1.16790       -0.74790
H         -1.10330        1.63880        3.41870
H          0.66320        1.37360        3.64320
H         -0.40650       -0.05190        3.57670
H         -0.44460        2.72470        0.62220
H          0.70460        2.95130        1.97410
H          2.54470        1.95340        0.89080
H          1.83200        3.02980       -0.29820
H         -2.73760       -2.85710        1.98470
H         -2.91550       -1.53390        4.69650
H         -2.45510       -3.30850        4.31680
H         -8.46180        1.25640        3.21650
H         -8.76970        2.45820        1.97340
H         -9.19200        2.80410        3.67860
H         -8.11540        4.75080        2.41670
H         -7.26720        6.79380        1.93080
H         -5.57780        6.64810        1.39780
H         -5.96030        7.40110        3.00650
H         -4.10790        5.47930        3.64140
H         -2.65210        3.58430        4.12620
H         -3.28010        1.97430        4.53600
H         -3.39550        3.33560        5.73300
H         -7.58970        1.25090        5.20050
H         -6.21720        0.43680        5.91220
H         -7.77960       -0.75690        3.57120
H         -7.59510       -1.24570        5.25870
H         -5.44360       -1.84200        1.22180
H         -5.94240       -3.49120        0.64250
H         -4.27810       -3.10680        0.71060
H         -4.23990       -5.29530        2.03190
H         -3.32370       -7.02120        3.55600
H         -4.68970       -7.50080        4.66830
H         -3.28810       -6.55640        5.27850
H         -5.36440       -5.35210        6.12010
H         -6.44680       -3.80710        7.19650
H         -7.56970       -3.00840        6.20220
H         -6.04920       -2.11820        6.78000
