45

C          0.90100       -0.64300       -0.00200
N         -0.23540       -0.97380       -0.65000
C         -0.46050       -2.14780       -1.49390
C         -1.62470       -2.99200       -0.99010
C         -1.09840        0.03650       -0.43570
C         -0.47150        0.97720        0.35030
N          0.78200        0.54910        0.61130
C          1.75720        1.22900        1.45650
C          1.19540        1.36720        2.87520
Pd         2.65840       -1.88140       -0.01350
Br         3.51690       -0.64370       -2.12040
C          1.94580       -2.90890        1.73550
C          0.79150       -2.65650        2.35730
N          4.37500       -3.09110       -0.02470
C          5.63950       -2.55580       -0.05870
C          5.87740       -1.08030        0.03590
C          6.76260       -3.39590        0.01820
C          6.59670       -4.77320        0.09800
C          5.31970       -5.31070        0.08410
C          4.20770       -4.46080        0.02520
C          2.85680       -5.09840       -0.23760
H          0.45680       -2.77430       -1.53500
H         -0.68770       -1.80040       -2.52630
H         -1.39970       -3.38880        0.02140
H         -1.78550       -3.84110       -1.68900
H         -2.55680       -2.38900       -0.95550
H         -2.10790        0.08780       -0.83270
H         -0.90100        1.90720        0.69300
H          1.97740        2.23650        1.04020
H          2.69480        0.63880        1.49670
H          0.26280        1.97400        2.87430
H          1.93270        1.86500        3.53560
H          0.95970        0.36410        3.29140
H          2.57880       -3.67930        2.16340
H          0.09660       -1.90310        2.01980
H          0.52730       -3.22580        3.24290
H          4.93320       -0.51570        0.13770
H          6.46910       -0.72340       -0.83130
H          6.45140       -0.87440        0.96720
H          7.76430       -2.98370        0.05480
H          7.45750       -5.42660        0.15930
H          5.20100       -6.38790        0.08650
H          2.94390       -6.19880       -0.35630
H          2.48290       -4.70710       -1.21010
H          2.06990       -4.95680        0.50570
