75

P          1.27500        0.00000        0.00000
N          0.29670        1.46770       -0.42260
C          0.95670        2.71470        0.07340
C          2.28020        2.98170       -0.67990
C          0.13130        4.01850       -0.08710
C         -1.11820        1.40400       -0.07430
C         -1.51330       -0.00000        0.21870
C         -3.05310       -0.06820        0.33730
C         -1.06130       -0.86630       -1.01470
N          0.40600       -1.17690       -1.11180
C          0.47900       -2.68930       -0.82290
C         -0.13680       -3.51140       -2.00330
C          1.82570       -3.38400       -0.57120
N          0.66450       -0.20970        1.68130
C          1.26580       -1.42750        2.34000
C          2.79650       -1.38940        2.49020
C          0.68670       -1.70420        3.74030
C         -0.82730       -0.43480        1.56130
Pd         3.73500        0.00030       -0.00050
Br         3.73510        1.86260        1.79950
C          3.73490       -1.54560       -1.49470
C          3.15570       -1.31460       -2.67280
P          6.19500        0.00070       -0.00090
N          7.44430        1.12310        0.59390
C          7.29800        1.47990        2.01600
C          8.82560        1.00900        0.15200
O          6.55300       -1.23870        1.11560
C          6.29800       -2.48010        0.51560
O          6.53230        0.07240       -1.66640
C          5.98420        1.28390       -2.14630
H          1.14030        2.58160        1.16350
H          2.09700        3.27400       -1.72870
H          2.94340        2.10040       -0.71710
H          2.82940        3.80970       -0.17300
H         -0.02590        4.24890       -1.15820
H          0.69020        4.86110        0.37770
H         -0.84990        4.00660        0.41860
H         -1.68340        1.80930       -0.95110
H         -1.37770        2.00040        0.82060
H         -3.54100        0.25190       -0.61300
H         -3.41430        0.59680        1.14750
H         -3.38450       -1.10370        0.55960
H         -1.39900       -0.41720       -1.97710
H         -1.69330       -1.77220       -0.91820
H         -0.11400       -2.91840        0.08280
H          0.43300       -3.32660       -2.93650
H         -1.19970       -3.30370       -2.21590
H         -0.10020       -4.60240       -1.78130
H          2.37440       -3.55570       -1.51830
H          1.64920       -4.42250       -0.21010
H          2.44300       -2.91090        0.20410
H          1.02990       -2.32640        1.75970
H          3.11470       -0.56310        3.15240
H          3.30760       -1.32160        1.52660
H          3.15130       -2.34860        2.92710
H          0.93320       -0.88320        4.44140
H          1.11170       -2.65520        4.12910
H         -0.41170       -1.85450        3.73080
H         -1.28780        0.13690        2.38780
H         -1.11880       -1.49620        1.69230
H          4.24940       -2.48160       -1.32990
H          2.66330       -0.36710       -2.85920
H          3.17410       -2.07210       -3.44980
H          6.27170        1.31030        2.38600
H          7.50940        2.56360        2.15190
H          7.97270        0.88350        2.66170
H          8.87270        0.83180       -0.93840
H          9.35860        0.22390        0.72120
H          9.32310        1.99040        0.34020
H          6.87090       -3.25600        1.06210
H          6.64360       -2.54050       -0.54280
H          5.22590       -2.73330        0.63090
H          6.52020        1.57760       -3.07090
H          6.12070        2.15250       -1.45670
H          4.90720        1.15580       -2.38590
