26

C          1.02400       -0.65300       -0.05500
N          1.04720        0.62440       -0.07650
C          2.24500        1.42090       -0.20360
C         -0.28130        1.17690        0.06680
C         -1.20280       -0.05340       -0.03440
N         -0.27970       -1.14980        0.08630
C         -0.63560       -2.52660        0.32360
Pd         2.78020       -1.86970       -0.29550
Br         2.44340       -1.91910       -2.74640
C          2.99140       -1.78020        1.78250
C          4.00030       -2.34530        2.44840
C          4.53640       -3.08650       -0.53600
O          5.53140       -3.77580       -0.67220
H          3.14800        0.77960       -0.29930
H          2.35700        2.06970        0.69010
H          2.16700        2.06170       -1.10760
H         -0.53140        1.92240       -0.71810
H         -0.34200        1.64030        1.07620
H         -1.66340       -0.12990       -1.04540
H         -1.98250       -0.03370        0.75500
H         -1.73970       -2.63000        0.40010
H         -0.19540       -2.84850        1.29320
H         -0.25470       -3.17450       -0.48930
H          2.25200       -1.22570        2.34930
H          4.79020       -2.90720        1.95530
H          4.06510       -2.24830        3.52950
