33

C          0.90100       -0.64300       -0.00200
N          0.84920        0.60470        0.51880
C          1.85320        1.27310        1.33940
C         -0.39160        1.07100        0.28770
C         -1.09360        0.10740       -0.39490
N         -0.28890       -0.96840       -0.55770
C         -0.60160       -2.13200       -1.37810
Pd         2.65840       -1.88140       -0.01350
Br         1.32120       -3.78960        1.11740
C          3.76850       -0.29750       -0.95230
C          3.18400        0.75380       -1.54050
N          4.37500       -3.09110       -0.02470
C          5.65570       -2.61140       -0.22920
C          6.78030       -3.43660       -0.26890
C          6.63930       -4.80080       -0.10540
C          5.37270       -5.31300        0.11350
C          4.26870       -4.45560        0.16160
H          2.72680        0.61040        1.51240
H          1.40460        1.48170        2.33980
H          2.16480        2.23160        0.88460
H         -0.76310        2.03830        0.60230
H         -2.10290        0.19260       -0.77090
H         -1.59390       -1.99380       -1.87340
H         -0.59390       -3.06470       -0.81470
H          0.14450       -2.17840       -2.21690
H          4.82220       -0.20100       -1.03200
H          2.11740        0.88770       -1.60070
H          3.79720        1.53360       -1.98580
H          5.91180       -1.59620       -0.31840
H          7.76490       -3.01110       -0.42540
H          7.50350       -5.44960       -0.14680
H          5.24190       -6.38130        0.24080
H          3.33960       -4.95390        0.29350
