42

C          0.90100       -0.64300       -0.00200
N          0.87410        0.65530       -0.36010
C          1.99050        1.44580       -0.86500
C         -0.39890        1.05260       -0.22330
C         -1.14590       -0.01860        0.23120
N         -0.31960       -1.07560        0.35800
C         -0.65310       -2.40890        0.84090
Pd         2.65840       -1.88140       -0.01350
Br         3.19480       -1.14280        2.41030
C          2.21320       -2.49460       -2.02550
C          1.17900       -2.03500       -2.73680
N          4.37500       -3.09110       -0.02470
C          4.77170       -3.45830        1.35740
C          4.11680       -4.33050       -0.78190
C          5.62630       -2.43760       -0.37490
C          5.81020       -1.05630       -0.17670
C          7.07390       -0.47310       -0.35880
C          8.16920       -1.25570       -0.74730
C          8.00720       -2.61770       -0.96790
C          6.76010       -3.20550       -0.78110
H          2.91840        0.83360       -0.89630
H          2.15410        2.32910       -0.21070
H          1.76200        1.78970       -1.89490
H         -0.76970        2.04840       -0.44440
H         -2.20580       -0.02580        0.44920
H         -1.72960       -2.47010        1.10530
H         -0.05610       -2.62650        1.75480
H         -0.41740       -3.16400        0.06530
H          2.83110       -3.19900       -2.56050
H          0.46900       -1.31920       -2.35550
H          1.02800       -2.39060       -3.75180
H          3.91560       -3.94090        1.87660
H          5.15700       -2.62760        1.98410
H          5.60840       -4.19860        1.38800
H          3.02790       -4.50380       -0.86830
H          4.42350       -5.25180       -0.23310
H          4.61310       -4.35720       -1.77460
H          4.99110       -0.43800        0.16070
H          7.22180        0.57910       -0.17250
H          9.15100       -0.81180       -0.86390
H          8.85400       -3.23330       -1.25350
H          6.69890       -4.27760       -0.91520
