69

P          1.06330        0.07000       -0.03310
C          0.36020        1.20410       -1.36450
C         -1.14720        1.39350       -1.65820
C          0.96160        2.60100       -1.15310
C          0.66880       -1.67260       -0.60450
C          1.22040       -2.67650        0.41030
C         -0.82930       -1.96200       -0.78070
C          0.42700        0.76930        1.61250
C         -1.10950        0.80580        1.73280
C          0.85560       -0.04500        2.85880
Pd         3.52330        0.07000       -0.03310
Br         3.36030       -0.87170       -2.34240
C          3.61300        0.99060        1.81060
C          3.25460        2.26240        1.96840
P          5.98330        0.07000       -0.03310
C          7.03400        1.50030        0.69360
C          6.70870        1.92520        2.15090
C          8.55490        1.54510        0.48640
C          6.23820       -1.06170        1.44070
C          5.65860       -2.42830        1.06870
C          7.70920       -1.30950        1.84270
C          6.47190       -0.29890       -1.79070
C          6.10650        0.87510       -2.71540
C          7.93860       -0.66320       -2.02010
H          0.79060        0.80150       -2.30560
H         -1.68800        2.00250       -0.92360
H         -1.71130        0.48160       -1.86560
H         -1.23640        1.99450       -2.58960
H          0.55070        3.07090       -0.23300
H          0.72810        3.26660       -2.01110
H          2.06730        2.54280       -1.06720
H          1.12300       -1.89220       -1.57780
H          0.71640       -2.57400        1.38790
H          2.30990       -2.53770        0.54070
H          1.04020       -3.71570        0.05910
H         -1.41850       -1.70070        0.11720
H         -0.99450       -3.04040       -0.98960
H         -1.22170       -1.46490       -1.67390
H          0.78600        1.80810        1.70540
H         -1.53970       -0.21630        1.73160
H         -1.60110        1.39510        0.97390
H         -1.40230        1.28470        2.69060
H          0.37980       -1.04160        2.87760
H          0.52430        0.48830        3.77920
H          1.92040       -0.22360        2.98280
H          3.94800        0.43750        2.67900
H          2.91940        2.84650        1.12340
H          3.30420        2.71690        2.95330
H          6.69200        2.36740        0.08830
H          6.92600        1.17980        2.92420
H          5.67970        2.26280        2.26410
H          7.29440        2.84070        2.41900
H          9.14290        0.76260        0.98390
H          8.93790        2.51170        0.88470
H          8.81850        1.61070       -0.56770
H          5.71650       -0.69690        2.33890
H          6.21170       -2.85590        0.20190
H          4.58900       -2.34440        0.80790
H          5.75760       -3.13650        1.92080
H          8.33180       -1.60780        0.97580
H          7.77460       -2.11060        2.60900
H          8.16430       -0.44890        2.35070
H          5.92560       -1.21610       -2.06990
H          6.71860        1.76910       -2.47680
H          5.04810        1.17830       -2.61330
H          6.28530        0.59470       -3.77700
H          8.61960        0.20130       -1.98440
H          8.06790       -1.04590       -3.05660
H          8.29070       -1.44610       -1.32210
