43

C          1.02400       -0.65300       -0.05500
N          1.05620        0.62250        0.11390
C          2.24980        1.43040        0.29580
C          3.20800        1.38340       -0.88590
C         -0.27310        1.17710        0.19110
C         -1.20190       -0.01150       -0.08740
N         -0.30430       -1.13680       -0.04610
C         -0.74230       -2.48910        0.24250
C         -0.33970       -3.49370       -0.82070
Pd         2.78020       -1.86970       -0.29550
Br         2.77870       -1.94040        2.20150
C          2.51890       -1.71980       -2.40110
C          1.39400       -1.32660       -3.00560
N          4.49560       -3.05820       -0.53040
C          4.07950       -4.35880        0.06090
C          5.04040       -3.28580       -1.87700
C          5.51730       -2.70340        0.49070
H          2.78410        1.09790        1.21320
H          1.95770        2.49670        0.45550
H          3.60410        0.35940       -1.01590
H          4.06330        2.06060       -0.67380
H          2.69880        1.72390       -1.81100
H         -0.44270        1.99720       -0.54420
H         -0.42770        1.56040        1.22760
H         -1.62890        0.03700       -1.11290
H         -2.00860       -0.06630        0.67440
H         -1.85160       -2.50660        0.33000
H         -0.32460       -2.79840        1.22450
H         -0.78470       -3.21580       -1.79760
H         -0.73540       -4.49150       -0.52380
H          0.76270       -3.55860       -0.89660
H          3.31100       -1.96840       -3.08380
H          0.49570       -1.06740       -2.47300
H          1.35480       -1.28790       -4.08990
H          3.24570       -4.77630       -0.54340
H          3.68010       -4.28750        1.09350
H          4.89900       -5.11800        0.03730
H          4.29690       -3.78790       -2.53110
H          5.93030       -3.95160       -1.84370
H          5.37520       -2.31930       -2.31150
H          5.18890       -2.73340        1.54690
H          5.84800       -1.66050        0.30010
H          6.42710       -3.34230        0.40360
