56

P         -1.20000       -0.32570        0.88590
N         -0.92610       -1.46230       -0.47740
C         -2.14470       -1.53300       -1.30260
C          0.25080       -1.48250       -1.35750
C          1.53680       -1.28700       -0.63290
N          1.77820        0.05630       -0.05180
C          1.23590        1.41160       -0.35380
C         -0.17280        1.52180       -0.95890
N         -1.30840        1.18770       -0.06040
C         -1.62650        2.32260        0.82650
N          0.12240       -0.85660        2.01950
C          0.00900       -2.16300        2.66390
C          1.35720       -0.05500        2.32160
C          2.44080       -0.04920        1.22920
Pd        -3.20880        0.09130        2.26930
Br        -4.36640        0.76680        0.11720
C         -2.32500       -0.61010        4.03710
C         -1.71670        0.22670        4.89110
N         -4.91630        0.52770        3.34010
C         -5.23130       -0.11380        4.50790
N         -6.40530        0.14490        5.15060
C         -7.25220        1.11530        4.71310
O         -8.40000        1.40830        5.37200
C         -8.92290        0.66490        6.40920
C         -6.92450        1.82980        3.56950
C         -5.77450        1.48120        2.86870
H         -3.04250       -1.70200       -0.67260
H         -2.09350       -2.38850       -2.01070
H         -2.28040       -0.59980       -1.89560
H          0.17870       -0.87340       -2.27050
H          0.29760       -2.51970       -1.76050
H          2.38800       -1.58360       -1.27630
H          1.49970       -2.05720        0.17340
H          1.95360        1.94030       -1.01140
H          1.21010        2.02710        0.57210
H         -0.26650        1.04240       -1.93580
H         -0.27690        2.58760       -1.26280
H         -1.79110        3.24720        0.22830
H         -0.83880        2.49010        1.58210
H         -2.57150        2.16380        1.37290
H         -1.04820       -2.45140        2.76980
H          0.45900       -2.12000        3.68220
H          0.51780       -2.94460        2.07370
H          1.05890        0.98460        2.53910
H          1.88570       -0.42910        3.22520
H          3.08220       -0.96550        1.24840
H          3.17510        0.78040        1.37020
H         -2.39060       -1.65500        4.30660
H         -1.64290        1.29390        4.69880
H         -1.28790       -0.15400        5.81580
H         -4.63860       -0.94140        4.86300
H         -9.83080        1.17290        6.79720
H         -8.18670        0.57350        7.23440
H         -9.21520       -0.34490        6.04790
H         -7.54710        2.64560        3.22200
H         -5.52600        2.06880        2.00580
