51

P         -1.31010       -0.02790        0.79070
N         -1.00760       -1.18650       -0.55370
C         -2.22400       -1.44750       -1.33460
C          0.17830       -1.29280       -1.41800
C          1.46330       -1.13770       -0.68870
N          1.68510        0.18790       -0.07340
C          1.21720        1.55540       -0.44070
C         -0.20650        1.72940       -1.04090
N         -1.37710        1.47710       -0.15220
C         -1.64490        2.61940        0.73230
N         -0.02250       -0.66650        1.90560
C         -0.22000       -1.98140        2.52010
C          1.21260        0.09630        2.27650
C          2.32010        0.06790        1.22320
Pd        -3.32260        0.00260        2.26790
Br        -4.85750        0.33030        0.20760
C         -2.04840       -0.26940        3.97810
C         -1.09970        0.56150        4.40900
O         -4.91450        0.03140        3.49630
C         -6.17490       -0.03970        3.10710
C         -7.00570       -0.04430        4.20550
C         -6.18120        0.06290        5.29740
C         -4.88790        0.07160        4.81340
H         -3.07100       -1.71010       -0.67050
H         -2.08000       -2.33790       -1.98650
H         -2.47450       -0.58540       -1.99040
H          0.14070       -0.70290       -2.34490
H          0.19560       -2.34450       -1.78600
H          2.31810       -1.42610       -1.33310
H          1.41170       -1.92610        0.10140
H          1.95670        1.99260       -1.14210
H          1.24850        2.21060        0.45720
H         -0.32950        1.21010       -1.99360
H         -0.25280        2.78650       -1.38580
H         -1.72140        3.56160        0.14070
H         -0.85100        2.74000        1.49830
H         -2.62710        2.48650        1.22990
H         -1.29930       -2.22620        2.58270
H          0.18080       -1.97010        3.55880
H          0.29010       -2.77070        1.94680
H          0.94180        1.14920        2.46620
H          1.68160       -0.29960        3.20250
H          2.92430       -0.87250        1.27070
H          3.07510        0.87210        1.38450
H         -2.21680       -1.18230        4.54200
H         -0.87100        1.48620        3.90030
H         -0.52060        0.28110        5.28780
H         -6.54220       -0.14610        2.09990
H         -8.08840       -0.11780        4.21050
H         -6.48860        0.12250        6.33150
H         -4.01110        0.15360        5.42880
