72

P          0.94970        0.05880       -0.06340
C          0.11310        1.10460        1.29580
C         -1.39960        1.36110        1.39010
C          0.54700        0.66450        2.71460
C          0.56690        0.88990       -1.69890
C         -0.93680        1.02920       -2.03310
C          1.22320        2.25600       -1.85430
C          0.42180       -1.73190        0.24180
C          0.81810       -2.34150        1.58910
C         -1.09660       -1.98140        0.03970
Pd         3.40970        0.05880       -0.06340
Br         3.40970       -1.54950       -2.09350
C          3.40970        1.39390        1.62190
C          3.10340        2.68610        1.54180
P          5.86970        0.05880       -0.06340
C          6.66430       -1.57870        0.22210
C          6.41010       -2.66370       -0.64500
C          6.86570       -3.95150       -0.34690
C          7.57520       -4.18650        0.82860
C          7.85340       -3.12890        1.69230
C          7.41270       -1.83540        1.39070
C          6.47070        0.08930       -1.78750
C          5.63530        0.41340       -2.86820
C          6.13800        0.44550       -4.17300
C          7.49370        0.20700       -4.40930
C          8.35370       -0.04520       -3.34910
C          7.84930       -0.10450       -2.03940
C          6.38010        1.14570        1.29740
C          6.10430        0.86280        2.64760
C          6.46550        1.77010        3.64990
C          7.11700        2.95950        3.31590
C          7.41800        3.23770        1.98080
C          7.05300        2.33430        0.97670
H          0.57070        2.09870        1.13100
H         -1.97530        0.45610        1.63530
H         -1.83510        1.87760        0.53720
H         -1.57480        2.06400        2.23780
H         -0.12160       -0.10080        3.13810
H          0.47830        1.52160        3.41920
H          1.56580        0.25890        2.76820
H          0.98520        0.22240       -2.48040
H         -1.44070        1.78740       -1.43060
H         -1.49110        0.08080       -1.96710
H         -1.06780        1.37490       -3.07860
H          0.85630        2.96420       -1.08390
H          0.96930        2.67310       -2.85600
H          2.32460        2.15730       -1.79680
H          0.94010       -2.32000       -0.54370
H          0.17190       -1.99120        2.41020
H          1.89140       -2.16580        1.82020
H          0.62810       -3.43910        1.55820
H         -1.70920       -1.43690        0.77710
H         -1.33660       -3.05500        0.17730
H         -1.43680       -1.73450       -0.97450
H          3.61110        0.98160        2.59970
H          2.84870        3.14540        0.59650
H          3.08720        3.28250        2.45100
H          5.84180       -2.53510       -1.54830
H          6.64650       -4.77360       -1.01650
H          7.90220       -5.18910        1.07390
H          8.39290       -3.31620        2.61190
H          7.63200       -1.06660        2.10860
H          4.59680        0.65700       -2.71600
H          5.47640        0.66990       -5.00210
H          7.88410        0.24010       -5.41910
H          9.40840       -0.20950       -3.51610
H          8.53290       -0.29290       -1.22620
H          5.59390       -0.05140        2.92290
H          6.23210        1.55580        4.68480
H          7.38800        3.66540        4.09120
H          7.92550        4.15830        1.72250
H          7.27970        2.57300       -0.05480
