55

C          2.32700        0.03400        0.00000
N          1.54720        1.14660       -0.02790
C          2.06140        2.52430       -0.06010
C          1.60500        3.25780       -1.32410
C          1.66500        3.28860        1.20870
C          0.26890        0.68020       -0.00250
C          0.29420       -0.69100        0.05280
C         -0.87660       -1.45400        0.10740
C         -2.10780       -0.78470        0.08060
C         -2.14530        0.61860        0.02430
C         -0.95330        1.37170       -0.01390
N          1.57090       -1.12050        0.06030
C          1.97850       -2.54400        0.17540
C          1.46210       -3.41240       -0.96570
C          1.90320       -3.14610       -2.26990
C          1.45440       -3.91280       -3.34940
C          0.54720       -4.95410       -3.14440
C          0.09770       -5.24040       -1.85390
C          0.55160       -4.48080       -0.76900
Pd         4.47690        0.05800        0.00140
Br         4.47870        0.05160       -2.58860
C          4.47540        0.06340        2.15140
C          3.34660        0.03050        2.87200
N          6.57670        0.08150        0.00280
C          7.29500       -0.41770        1.09410
F          6.75150       -1.10870        2.10900
C          8.68800       -0.42310        1.16490
C          9.43490        0.00540        0.09930
F         10.79000       -0.03250        0.15400
C          8.77700        0.42370       -1.03730
C          7.37100        0.46790       -1.07680
F          6.88930        0.95840       -2.22790
H          3.17390        2.48580       -0.08050
H          0.50380        3.36190       -1.36920
H          1.94670        2.70770       -2.22280
H          2.04230        4.27870       -1.34270
H          0.56700        3.40310        1.30080
H          2.11890        4.30320        1.19260
H          2.04370        2.75670        2.10780
H         -0.86250       -2.52860        0.16830
H         -3.02340       -1.36280        0.11670
H         -3.10620        1.11550        0.01030
H         -1.01540        2.44610       -0.04860
H          1.57300       -2.93100        1.14160
H          3.08410       -2.62330        0.23240
H          2.60540       -2.34560       -2.44000
H          1.80990       -3.69490       -4.34530
H          0.19590       -5.53830       -3.98680
H         -0.60850       -6.05400       -1.70720
H          0.18580       -4.73230        0.22230
H          5.31940        0.16340        2.79780
H          2.36140       -0.03680        2.44360
H          3.39580        0.07010        3.95640
H          9.18600       -0.81130        2.04710
H          9.36230        0.72180       -1.89790
