55

C          2.32700        0.03400        0.00000
N          1.50610        1.15240       -0.01380
C          1.88270        2.57810        0.21880
C          1.51100        3.53040       -0.92930
C          1.22770        3.11140        1.52670
C          0.24150        0.66060       -0.06440
C          0.28770       -0.70890       -0.05600
C         -0.88580       -1.47950       -0.08060
C         -2.12220       -0.81830       -0.08950
C         -2.17800        0.58570       -0.08840
C         -0.99320        1.33510       -0.07730
N          1.57630       -1.12380       -0.00370
C          1.97970       -2.54880       -0.01810
C          2.75980       -3.02740       -1.23190
C          3.96280       -3.72140       -1.02590
C          4.65250       -4.29530       -2.09770
C          4.15400       -4.17770       -3.39570
C          2.96330       -3.47770       -3.62130
C          2.26210       -2.90660       -2.54710
Pd         4.47690        0.05800        0.00140
Br         4.27980       -1.28400        2.10340
C          4.35920        1.13950       -1.82980
C          3.25900        1.23120       -2.58460
N          6.57670        0.08150        0.00280
C          7.23400       -0.39280        1.11510
C          8.62710       -0.39430        1.21870
F          9.22830       -0.87320        2.33630
C          9.39140        0.10350        0.17790
C          8.75310        0.57730       -0.95630
C          7.35610        0.55000       -1.03270
H          2.97900        2.64000        0.37870
H          0.43840        3.49100       -1.19000
H          2.10310        3.32990       -1.83290
H          1.73830        4.57780       -0.62980
H          0.12340        3.18070        1.47960
H          1.57010        4.14580        1.74500
H          1.47750        2.47510        2.40030
H         -0.89910       -2.55810       -0.07480
H         -3.04340       -1.39240       -0.09800
H         -3.13820        1.08080       -0.08630
H         -1.08780        2.40650       -0.08090
H          1.08940       -3.19940       -0.01620
H          2.49780       -2.80600        0.91530
H          4.35260       -3.85450       -0.02600
H          5.56420       -4.84960       -1.91610
H          4.68520       -4.63800       -4.22110
H          2.58100       -3.40420       -4.63430
H          1.32620       -2.40050       -2.74580
H          5.19140        1.62780       -2.28530
H          2.32650        0.74660       -2.34840
H          3.29400        1.77220       -3.52490
H          6.72140       -0.77320        1.96570
H         10.47140        0.11880        0.24780
H          9.33800        0.96570       -1.78060
H          6.97260        0.91090       -1.94930
