78

C          2.19280        0.15390       -0.11230
N          1.29200        0.60610        0.76060
C          1.54490        1.31110        2.02390
C          2.32480        0.38580        2.94630
C          2.31640        2.63160        1.84870
C          0.03360        0.21710        0.33730
C          0.14060       -0.44450       -0.84270
C         -1.00080       -0.99940       -1.50100
C         -2.26670       -0.84850       -0.91600
C         -2.39190       -0.16180        0.29710
C         -1.24920        0.37500        0.93800
N          1.45100       -0.47010       -1.20710
C          1.85550       -1.06070       -2.49750
C          1.86260       -0.04130       -3.62930
C          3.06320        0.17730       -4.30980
C          3.10990        1.00680       -5.43080
C          1.95490        1.64270       -5.88920
C          0.74860        1.47030       -5.20810
C          0.69360        0.63340       -4.08010
Pd         4.47690        0.05800        0.00140
Br         4.45240        2.32060       -1.25890
C          4.49720       -1.82010        1.04770
C          5.33650       -2.79960        0.71750
P          7.02170        0.04870        0.24210
C          7.85510       -0.68700        1.78060
C          8.53920       -1.92060        1.82580
C          9.12430       -2.38590        3.02530
C          9.04470       -1.64320        4.20500
C          8.33180       -0.45640        4.21170
C          7.72800        0.00030        3.03500
C          8.07600       -0.82720       -1.14180
C          7.57270       -1.42960       -2.35230
C          8.44450       -1.98660       -3.34260
C          9.82870       -1.96080       -3.17660
C         10.35210       -1.38990       -2.02430
C          9.50110       -0.83960       -1.03510
C          7.43690        1.78240        0.65770
C          8.67830        2.40520        0.34250
C          8.98990        3.65770        0.91200
C          8.09680        4.26580        1.79350
C          6.88430        3.63830        2.06940
O          6.10500        4.14280        2.85740
N          6.58080        2.43370        1.48800
H          0.55880        1.57730        2.45730
H          2.75950       -0.43470        3.53560
H          1.59040       -0.43560        2.86160
H          2.19890        0.97420        3.89040
H          3.37960        2.43260        1.60970
H          2.29360        3.18080        2.81610
H          1.88400        3.30250        1.07500
H         -0.96420       -1.55230       -2.43120
H         -3.15270       -1.26510       -1.39710
H         -3.38280       -0.05850        0.73490
H         -1.40970        0.87630        1.87770
H          1.11220       -1.81270       -2.85450
H          2.78870       -1.64280       -2.39890
H          3.96460       -0.31920       -3.98170
H          4.04580        1.13630       -5.95350
H          1.99630        2.26290       -6.77650
H         -0.14290        1.97090       -5.57480
H         -0.26870        0.50260       -3.60270
H          3.63910       -2.14580        1.62770
H          6.00820       -2.68420       -0.12590
H          5.15510       -3.79880        1.11600
H          8.61880       -2.54270        0.95040
H          9.65100       -3.32860        3.05160
H          9.52010       -1.99130        5.11910
H          8.24880        0.11230        5.13640
H          7.17670        0.91120        3.15600
H          6.51930       -1.47490       -2.57980
H          8.06700       -2.43680       -4.26200
H         10.49990       -2.37450       -3.93790
H         11.43320       -1.36810       -1.90680
H          9.98470       -0.41270       -0.17460
H          9.43080        1.93950       -0.28360
H          9.93660        4.15500        0.71370
H          8.34720        5.20780        2.27380
H          5.68940        1.95860        1.74290
