37

C         -0.17290       -1.22060       -0.03610
N         -0.50700       -0.24080       -0.99490
C         -0.99600       -0.23070       -2.38750
C         -0.22420        0.96300       -0.42600
Cl        -0.38890        2.57230       -1.16090
C          0.26070        0.76880        0.81990
Cl         0.78910        2.05200        1.90910
N          0.30260       -0.55720        1.06760
C          0.73300       -1.09850        2.34310
Pd        -0.49020       -3.48260       -0.01010
Br         1.90250       -3.81880       -0.94310
C         -2.47630       -3.20360        0.76440
C         -3.02200       -1.99710        0.94410
C         -0.77920       -5.73150        0.04520
N         -1.97680       -6.46850       -0.01650
C         -3.40290       -6.15420       -0.22870
C         -1.62910       -7.77920        0.03780
Cl        -2.70520       -9.18360       -0.02690
C         -0.28950       -7.88510        0.12790
Cl         0.60780       -9.40430        0.23370
N          0.24450       -6.65100        0.11390
C          1.67980       -6.47340        0.26070
H         -1.04200       -1.22700       -2.84930
H         -0.29060        0.38320       -3.01840
H         -1.97410        0.30820       -2.48210
H          0.91830       -0.28260        3.06940
H          1.69790       -1.60970        2.19040
H         -0.06030       -1.73480        2.77590
H         -3.05090       -4.01850        1.17130
H         -2.51110       -1.08100        0.70320
H         -3.99290       -1.90440        1.41910
H         -3.61090       -5.10870       -0.46840
H         -4.00440       -6.50880        0.64330
H         -3.79030       -6.71030       -1.11960
H          2.17270       -7.38810        0.63040
H          1.88420       -5.70810        1.03680
H          2.13580       -6.35800       -0.74010
