42

P          0.94810        0.08040       -0.02910
O         -0.32910       -1.05300       -0.13020
C          0.03670       -1.97040       -1.16420
O          0.55130        0.75180        1.49330
C          0.63400       -0.21230        2.51030
O          0.54050        0.85100       -1.50870
C         -0.85290        1.15640       -1.48870
Pd         3.40810        0.08040       -0.02910
Br         3.40810        2.66490        0.13930
C          3.40810       -2.06510       -0.16900
C          3.35370       -2.87250        0.88670
N          5.50810        0.08040       -0.02910
C          6.34690        1.13570        0.00170
N          7.65300        0.74890       -0.05200
C          8.83440        1.59160       -0.06350
C          8.73140        2.99810       -0.03230
C          9.87420        3.80030       -0.07470
C         11.13910        3.21660       -0.14620
C         11.26410        1.82850       -0.17420
C         10.12390        1.01910       -0.13260
C          7.61780       -0.60910       -0.08100
C          6.29980       -1.00630       -0.08180
H         -0.35430       -2.98280       -0.94610
H          1.12900       -2.12350       -1.30560
H         -0.35590       -1.63940       -2.14840
H         -0.05060        0.10860        3.32540
H          1.66400       -0.24360        2.91680
H          0.27880       -1.22210        2.21460
H         -1.10050        1.85160       -2.31100
H         -1.18100        1.63090       -0.53550
H         -1.48770        0.26160       -1.68430
H          3.47000       -2.49700       -1.16270
H          3.30070       -2.47650        1.89240
H          3.36870       -3.94850        0.73050
H          6.03290        2.16360        0.03880
H          7.77200        3.49020        0.01950
H          9.78320        4.87890       -0.05230
H         12.01800        3.84250       -0.18260
H         12.24700        1.37670       -0.23460
H         10.27120       -0.04660       -0.15780
H          8.46100       -1.26440       -0.12610
H          5.96860       -2.03170       -0.11980
