41

N         -1.47260       -0.12420        0.03470
C         -0.89880        0.95650        0.58970
C          0.50440        1.08650        0.64620
C          1.16270        2.27880        1.27860
C          1.29760        0.07710        0.08950
C          0.69580       -1.03320       -0.49970
C         -0.70600       -1.12770       -0.53270
Pd        -3.47560       -0.20170       -0.28210
Br        -3.67400       -1.40230        2.00430
C         -3.31100        0.79490       -2.18000
C         -2.16480        1.16170       -2.75540
P         -5.82450       -0.18410       -0.60010
N         -6.83330        0.40740       -1.91970
C         -6.52480       -0.30980       -3.17970
C         -8.24940        0.41580       -1.62490
O         -6.40440       -1.82040       -0.69040
C         -6.36930       -2.50000        0.54090
O         -6.33190        0.86400        0.64020
C         -5.81080        2.16470        0.45010
H         -1.53050        1.75500        0.96400
H          0.41330        2.97340        1.71100
H          1.77040        2.82990        0.52930
H          1.83180        1.93340        2.09600
H          2.37990        0.15520        0.10150
H          1.30810       -1.80320       -0.95290
H         -1.16920       -1.96510       -1.01760
H         -4.21040        1.06170       -2.70620
H         -1.20020        0.97010       -2.30970
H         -2.19760        1.68560       -3.70800
H         -5.43940       -0.49880       -3.33090
H         -6.85050        0.29610       -4.04940
H         -6.99920       -1.31050       -3.21910
H         -8.42830        1.06280       -0.74500
H         -8.60900       -0.61500       -1.44340
H         -8.77820        0.86740       -2.49010
H         -6.97040       -3.43170        0.43670
H         -6.82000       -1.95390        1.40260
H         -5.35320       -2.88310        0.70710
H         -6.51400        2.89530        0.91200
H         -5.73190        2.46990       -0.61550
H         -4.84130        2.27200        0.97970
