64

N         -1.43200       -0.21990        0.01000
C         -0.88180        0.77800        0.78630
C          0.51410        0.85510        0.95990
C          1.34250       -0.12420        0.42730
C          0.77560       -1.15160       -0.32800
C         -0.61160       -1.15400       -0.56980
Pd        -3.47560       -0.20170       -0.28210
Br        -2.94490       -0.37070       -2.81150
C         -3.91620       -0.06150        1.81760
C         -3.06190       -0.12070        2.84210
P         -5.99180       -0.26330       -0.70640
C         -6.86570        1.48560       -0.60030
C         -6.21840        2.32190       -1.74570
C         -8.38890        1.54770       -0.82890
C         -6.60730        2.32530        0.70810
C         -6.54900       -1.27420       -2.25740
C         -6.12680       -2.78420       -2.14310
C         -8.06740       -1.31840       -2.37450
C         -6.02740       -0.79300       -3.58510
C         -6.53740       -1.05190        0.88920
C         -7.39420       -0.57000        1.89630
C         -7.67640       -1.32050        3.05390
C         -7.15860       -2.62950        3.24700
N         -7.41000       -3.41370        4.45270
C         -8.16320       -2.90730        5.59530
C         -6.87590       -4.76040        4.66770
C         -6.35250       -3.12600        2.20420
C         -6.03600       -2.35290        1.09200
H         -1.49390        1.55610        1.17390
H          0.95400        1.67980        1.51550
H          2.41630       -0.08450        0.59580
H          1.42200       -1.92900       -0.71910
H         -1.03020       -1.97220       -1.14930
H         -4.91840        0.13080        2.13330
H         -2.00110       -0.26490        2.73870
H         -3.45360        0.01150        3.84980
H         -6.55850        1.97800       -2.73290
H         -5.10720        2.28020       -1.72250
H         -6.51640        3.39380       -1.72570
H         -8.67800        1.34730       -1.86100
H         -8.75800        2.59070       -0.70590
H         -8.93410        0.89180       -0.12590
H         -5.62540        2.17790        1.18690
H         -7.40900        2.25830        1.46620
H         -6.71620        3.41760        0.50180
H         -6.56450       -3.30680       -1.27190
H         -5.02720       -2.94520       -2.18320
H         -6.54040       -3.36470       -2.99900
H         -8.54080       -1.61100       -1.41420
H         -8.36910       -2.03740       -3.16550
H         -8.44400       -0.37930       -2.76920
H         -5.02780       -1.00000       -3.56630
H         -6.19900        0.26280       -3.81880
H         -6.27840       -1.45250       -4.43370
H         -7.85990        0.37230        1.84470
H         -8.30860       -0.82940        3.77150
H         -8.56040       -1.89140        5.48550
H         -7.50420       -2.89290        6.49060
H         -9.02660       -3.57510        5.80270
H         -6.30050       -5.19440        3.84180
H         -7.70550       -5.47130        4.86820
H         -6.19410       -4.75220        5.54510
H         -5.91720       -4.10590        2.20310
H         -5.36880       -2.80480        0.37910
