40

N         -1.44940       -0.15450       -0.02300
C         -0.75910        0.78820       -0.72400
C          0.64540        0.77710       -0.76650
F          1.33340        1.68090       -1.51580
C          1.34380       -0.19190       -0.05000
C          0.63350       -1.15660        0.67010
C         -0.77660       -1.14910        0.64740
Pd        -3.47560       -0.20170       -0.28210
Br        -3.18890       -1.82050       -2.28340
C         -3.71370        1.14210        1.37930
C         -2.70200        1.63440        2.10120
P         -5.86900       -0.30510       -0.58630
C         -6.79150        1.26650       -0.64290
C         -6.27760       -1.20550       -2.09920
C         -6.59360       -1.03720        0.99740
C         -6.30570       -0.23920        2.26300
C         -8.12800       -1.16880        0.88120
C         -6.01720       -2.45470        1.18060
H         -1.28820        1.52030       -1.32910
H          2.43220       -0.21350       -0.07210
H          1.17720       -1.91850        1.21220
H         -1.32070       -1.91540        1.17270
H         -4.68190        1.50550        1.65690
H         -1.67110        1.36170        1.93320
H         -2.91130        2.33020        2.90990
H         -6.35930        1.81660       -1.50770
H         -6.53360        1.90470        0.23670
H         -7.88130        1.18090       -0.77820
H         -5.84630       -0.70790       -2.98050
H         -7.37770       -1.26440       -2.18930
H         -5.90770       -2.24400       -2.00040
H         -6.68190        0.80050        2.15920
H         -5.23690       -0.31740        2.49060
H         -6.78630       -0.67980        3.15720
H         -8.61830       -0.17660        0.83700
H         -8.54640       -1.68720        1.77480
H         -8.41750       -1.76340       -0.01030
H         -4.91250       -2.41960        1.28920
H         -6.26290       -3.10880        0.31650
H         -6.43760       -2.93700        2.09180
