46

P          1.00280       -0.07640       -0.06450
O         -0.32930        0.24380       -1.08360
C          0.01790        1.40680       -1.82850
O          0.62510       -1.70080        0.31140
C          0.69740       -2.50800       -0.83530
O          0.66120        1.22510        1.00210
C         -0.71120        1.16110        1.37660
Pd         3.46280       -0.07640       -0.06450
Br         3.46280       -0.73350        2.44080
C          3.46280        0.46900       -2.14410
C          2.96430       -0.30490       -3.10440
C          5.61280       -0.07640       -0.06450
N          6.32230       -1.10830        0.17130
C          5.74480       -2.43990        0.26070
C          6.23710       -3.23940        1.44470
C          7.72280       -0.83580       -0.03930
C          7.73670        0.63230       -0.51070
N          6.33690        1.02360       -0.52990
C          5.90020        2.33020       -0.04450
C          6.39970        3.46560       -0.92170
H         -0.42340        1.34930       -2.85200
H          1.10320        1.56360       -2.01230
H         -0.36580        2.32220       -1.33470
H          0.01100       -3.36830       -0.68060
H          1.72600       -2.90270       -0.95500
H          0.33820       -2.01620       -1.76490
H         -0.89580        1.83730        2.23100
H         -1.02890        0.13880        1.68250
H         -1.38550        1.53650        0.57260
H          3.88800        1.43210       -2.40730
H          2.52370       -1.26550       -2.87460
H          2.99150        0.04120       -4.13440
H          6.03890       -2.99400       -0.66380
H          4.63270       -2.40140        0.25190
H          7.34140       -3.33590        1.40510
H          5.79380       -4.25790        1.38350
H          5.91800       -2.75220        2.38420
H          8.11410       -1.48270       -0.85680
H          8.30120       -0.99890        0.89610
H          8.15660        0.69870       -1.54430
H          8.33610        1.27600        0.17240
H          6.25140        2.46460        0.99670
H          4.78260        2.37690       -0.03500
H          7.50740        3.47640       -0.96260
H          6.04750        4.43350       -0.49610
H          5.98410        3.35090       -1.94180
