30

P          0.99600        0.08040       -0.05930
O         -0.40710        1.03480        0.13030
C         -0.11440        1.96310        1.16980
O          0.66070       -0.45540       -1.64620
C          0.73280        0.61910       -2.55090
O          0.70980       -0.86860        1.34240
C         -0.63190       -1.33440        1.32390
Pd         3.45600        0.08040       -0.05930
Br         3.45600       -2.47800       -0.46260
C          3.45600        2.20420        0.27550
C          3.42720        3.07240       -0.73110
C          5.60600        0.08040       -0.05930
N          6.35220       -1.02780       -0.23510
C          7.62880       -0.57730       -0.16570
C          7.59590        0.78360        0.06010
O          6.33820        1.15970        0.11560
H         -0.63570        2.92170        0.98430
H          0.96090        2.25290        1.26560
H         -0.43810        1.56210        2.15420
H          0.02410        0.40800       -3.38020
H          1.75520        0.68800       -2.97300
H          0.40900        1.59830       -2.13400
H         -0.75310       -2.13840        2.07390
H         -0.93090       -1.75380        0.33640
H         -1.34750       -0.53990        1.63380
H          3.48420        2.56530        1.29840
H          3.40110        2.72470       -1.75660
H          3.43100        4.13850       -0.52260
H          8.50580       -1.19400       -0.25480
H          8.45190        1.44010        0.16350
