38

N         -0.62750       -1.26260       -0.18400
C         -1.07690       -0.08860       -0.73430
Cl        -2.54410       -0.02950       -1.68430
C         -0.35410        1.11620       -0.55910
C          0.79500        1.13010        0.23160
C          1.21250       -0.04750        0.83160
C          0.50180       -1.23580        0.60190
Pd        -1.57560       -3.10440       -0.27260
Br         0.05130       -3.67080       -2.20660
C         -2.92620       -2.63420        1.33290
C         -3.08110       -1.47290        1.96750
P         -2.76220       -5.23540       -0.41030
N         -3.78170       -5.89530        0.90380
C         -5.04690       -5.14810        1.20370
C         -4.10750       -7.30460        0.75110
O         -4.21370       -5.36580       -1.33510
C         -4.08330       -5.21800       -2.71470
O         -1.44120       -6.31510       -0.31280
C         -0.86860       -6.24200        0.98490
H         -0.67880        2.04480       -1.00760
H          1.34560        2.05650        0.38950
H          2.08230       -0.02810        1.48670
H          0.83290       -2.13250        1.10050
H         -3.38520       -3.44990        1.81230
H         -2.54080       -0.57690        1.70560
H         -3.72840       -1.45930        2.84730
H         -5.06650       -4.05370        1.07040
H         -5.32630       -5.34070        2.26390
H         -5.86490       -5.41320        0.51200
H         -3.19470       -7.90200        0.58160
H         -4.82320       -7.44800       -0.08550
H         -4.58580       -7.65320        1.69140
H         -4.92340       -5.78680       -3.18640
H         -3.15460       -5.63930       -3.14880
H         -4.26230       -4.15260       -2.94060
H         -0.67320       -7.27420        1.34830
H         -1.49990       -5.77530        1.77470
H          0.09220       -5.68950        0.95300
