39

N         -1.41220       -0.04340       -0.10710
C         -0.78650        1.17470       -0.13580
C          0.60780        1.27500       -0.09640
C          1.39240        0.11970        0.02780
O          2.75040        0.15290       -0.00500
C          3.49770        1.27930       -0.28960
C          0.74580       -1.10260        0.17870
C         -0.64650       -1.15810        0.10980
Pd        -3.47560       -0.20170       -0.28210
Br        -3.69590        2.13510        0.81280
C         -3.29280       -2.14160       -1.19090
C         -2.21900       -2.67890       -1.78930
N         -5.58040       -0.26220       -0.47350
C         -6.31170       -1.43300       -0.26050
C         -5.76050       -2.71220        0.31340
C         -7.71660       -1.43050       -0.28880
C         -8.41460       -0.26840       -0.51550
C         -7.72090        0.88780       -0.77150
C         -6.31540        0.89740       -0.76290
C         -5.72110        2.14240       -1.40980
H         -1.32990        2.09100       -0.27170
H          1.06370        2.25080       -0.18650
H          4.57490        1.01980       -0.32250
H          3.33490        2.04810        0.49310
H          3.20890        1.68880       -1.28430
H          1.30920       -2.01630        0.33320
H         -1.10990       -2.11530        0.27560
H         -4.15230       -2.73170       -1.42040
H         -1.28080       -2.16560       -1.91820
H         -2.31160       -3.62440       -2.31460
H         -4.75220       -2.57700        0.74520
H         -5.85120       -3.55060       -0.41220
H         -6.37010       -3.01490        1.19170
H         -8.28090       -2.32810       -0.06590
H         -9.49650       -0.26680       -0.50140
H         -8.28970        1.78050       -1.00850
H         -6.49170        2.63990       -2.04520
H         -4.94770        1.87200       -2.16300
H         -5.47980        2.97940       -0.74140
