46

P          0.92870        0.06780       -0.01770
O         -0.33120        1.19020        0.34820
C          0.03360        1.73790        1.61810
C         -0.72040        2.99000        2.02880
O          0.54170       -0.27330       -1.64640
C          0.54930        0.88880       -2.43230
C         -0.15090        0.55760       -3.74660
O          0.49440       -1.03760        1.23430
C         -0.90560       -1.33810        1.12930
C         -1.41790       -2.03820        2.37770
Pd         3.38870        0.06780       -0.01770
Br         3.38870       -2.40310       -0.79420
C          3.38870        2.11890        0.62680
C          3.39300        2.54030        1.89350
N          5.48870        0.06780       -0.01770
C          6.17870       -0.96630       -0.61180
C          7.56690       -1.05200       -0.58880
C          8.30540       -0.09760        0.11220
C          9.79740       -0.25500        0.20700
C          7.62830        0.96150        0.70160
C          6.23740        1.04580        0.60440
H          1.06340        2.08130        1.60160
H         -0.09000        0.99680        2.43810
H         -0.56450        3.80490        1.29250
H         -0.29930        3.33400        3.00560
H         -1.79610        2.77850        2.17310
H          1.59530        1.19600       -2.64270
H         -0.02160        1.72360       -1.97200
H          0.36560       -0.28460       -4.25510
H         -0.15310        1.44070       -4.41770
H         -1.20380        0.25760       -3.54890
H         -1.12520       -1.94900        0.23010
H         -1.56370       -0.44500        1.10890
H         -0.94440       -3.03030        2.49050
H         -2.52270       -2.16990        2.29790
H         -1.21990       -1.41360        3.27760
H          3.42440        2.86030       -0.16490
H          3.35970        1.84410        2.72090
H          3.40750        3.61030        2.09050
H          5.70990       -1.72920       -1.17870
H          8.04740       -1.88530       -1.09630
H         10.16080       -1.13540       -0.37180
H         10.07530       -0.41410        1.26790
H         10.29860        0.65180       -0.18480
H          8.18280        1.70160        1.26200
H          5.77350        1.86900        1.11630
