42

N         -0.65900       -1.22800       -0.05100
C          0.58870       -1.11280        0.48590
O          1.19810       -2.22900        0.96150
C          2.31740       -2.23770        1.77500
C          1.14670        0.17610        0.65300
C          0.42160        1.30270        0.24760
C         -0.85510        1.14600       -0.27620
C         -1.39530       -0.13450       -0.38750
Pd        -1.57560       -3.10440       -0.27260
Br        -2.84220       -2.74910        1.95850
C         -0.52430       -3.39930       -2.12460
C          0.20800       -2.45320       -2.71590
N         -2.49230       -4.98070       -0.49410
C         -3.08430       -4.78510       -1.84750
C         -3.58190       -5.22980        0.45730
C         -1.65250       -6.15510       -0.73070
C         -0.24500       -6.09760       -0.73220
C          0.51890       -7.25950       -0.93490
C         -0.10080       -8.50050       -1.09730
C         -1.48770       -8.59160       -1.07440
C         -2.24780       -7.44380       -0.89910
H          2.50650       -3.27140        2.13050
H          2.15270       -1.60010        2.67390
H          3.20170       -1.87430        1.21390
H          2.11580        0.32070        1.11280
H          0.84880        2.28840        0.36070
H         -1.42230        2.00890       -0.60010
H         -2.38580       -0.26700       -0.80410
H         -0.56680       -4.35540       -2.63150
H          0.32380       -1.46420       -2.29950
H          0.71790       -2.67430       -3.64840
H         -4.19150       -4.90220       -1.86310
H         -2.93830       -3.73890       -2.17490
H         -2.71610       -5.44140       -2.67640
H         -4.28080       -4.36700        0.47300
H         -3.17760       -5.43470        1.46970
H         -4.24000       -6.07520        0.18380
H          0.28090       -5.17070       -0.56740
H          1.59650       -7.20370       -0.94960
H          0.48650       -9.39680       -1.24770
H         -1.97620       -9.55280       -1.19040
H         -3.32030       -7.58650       -0.89730
