45

N         -1.45580       -0.03680       -0.12150
C         -0.88040        1.17110        0.10880
C          0.50800        1.29620        0.19110
C          1.35850        0.20430       -0.11880
N          2.80700        0.35540       -0.19830
C          3.50670        1.59290        0.14040
C          3.69350       -0.68850       -0.70840
C          0.71100       -1.02710       -0.39440
C         -0.68060       -1.13470       -0.33680
Pd        -3.47560       -0.20170       -0.28210
Br        -3.37150        1.73650       -1.99680
C         -3.56210       -1.81070        1.14140
C         -2.52650       -2.32880        1.81270
N         -5.52890       -0.25630       -0.47850
C         -6.40910       -1.18850       -0.03850
N         -7.67660       -0.91120       -0.40090
C         -8.84660       -1.72780       -0.16090
C         -8.75990       -2.95370        0.54150
C         -9.88560       -3.76570        0.69590
C        -11.11160       -3.37020        0.16290
C        -11.21860       -2.15380       -0.51060
C        -10.09910       -1.33770       -0.66990
C         -7.60240        0.25020       -1.07890
C         -6.29230        0.65010       -1.12800
H         -1.51060        2.01640        0.33750
H          0.86010        2.27150        0.46630
H          2.87920        2.40460        0.52840
H          4.01970        1.98700       -0.76330
H          4.27100        1.39170        0.92100
H          3.20630       -1.62560       -1.00460
H          4.45930       -0.94480        0.05360
H          4.21130       -0.31510       -1.61880
H          1.22890       -1.92600       -0.67420
H         -1.14850       -2.07590       -0.60310
H         -4.47170       -2.28130        1.42910
H         -1.51280       -1.99040        1.72900
H         -2.69640       -3.14020        2.51450
H         -6.17080       -2.07890        0.48520
H         -7.83400       -3.31360        0.96450
H         -9.80310       -4.70980        1.21980
H        -11.97890       -4.00680        0.26930
H        -12.16810       -1.84370       -0.92380
H        -10.22180       -0.41200       -1.20930
H         -8.42140        0.77720       -1.54070
H         -5.94710        1.53110       -1.62630
