37

N         -0.65900       -1.22800       -0.05100
C         -1.38060       -0.14120        0.34790
O         -2.70360       -0.29780        0.60450
C         -3.58020        0.71620        0.93720
C         -0.73670        1.11230        0.43570
C          0.62070        1.21460        0.12720
C          1.32720        0.08310       -0.27410
C          0.66190       -1.13790       -0.36330
Pd        -1.57560       -3.10440       -0.27260
Br        -1.14020       -3.61250        2.22950
C         -1.93710       -2.68250       -2.34960
C         -1.76770       -1.48290       -2.90870
N         -2.49230       -4.98070       -0.49410
C         -3.53370       -5.13770       -1.36380
C         -4.22420       -6.34390       -1.43870
C         -3.81780       -7.43110       -0.64650
O         -4.45170       -8.63150       -0.66430
C         -5.64700       -8.89600       -1.29900
C         -2.72830       -7.26580        0.20550
C         -2.10000       -6.02660        0.29120
H         -4.59700        0.29210        1.06460
H         -3.61520        1.47550        0.12840
H         -3.26790        1.19170        1.89160
H         -1.27200        2.00560        0.72990
H          1.12230        2.17140        0.18930
H          2.37940        0.15180       -0.51850
H          1.19750       -2.02340       -0.67950
H         -2.22560       -3.49010       -3.01040
H         -1.44270       -0.62170       -2.34560
H         -1.93760       -1.36070       -3.97420
H         -3.90420       -4.30660       -1.94330
H         -5.07990       -6.41150       -2.09950
H         -5.91330       -9.96010       -1.14000
H         -5.56390       -8.70890       -2.39040
H         -6.44920       -8.26230       -0.86320
H         -2.38020       -8.09300        0.81460
H         -1.26050       -5.93040        0.95970
