108

C          1.02400       -0.65300       -0.05500
N          0.96070        0.72230       -0.06630
C          2.02060        1.78490       -0.04470
C          1.90850        3.22300       -0.45910
C          0.72340        4.06680       -0.91300
C          0.12670        3.68290       -2.26070
C         -0.21270        4.32870        0.28850
C          3.06560        4.08690       -0.38940
C          4.24150        3.69830        0.17100
C          4.30690        2.49050        0.72000
C          3.25770        1.55450        0.62250
C          3.46470        0.35260        1.37770
C          4.87910       -0.21010        0.98600
C          2.48480        0.39030        2.64070
C         -0.45620        1.03470        0.01610
C         -1.15870       -0.18480       -0.48290
N         -0.34970       -1.25090        0.02820
C         -0.95460       -2.52860        0.52510
C         -0.37260       -3.79880        0.24400
C          0.74510       -3.98450       -0.70750
C          1.84240       -4.61810        0.14660
C          0.21460       -4.76430       -1.92890
C         -0.86280       -5.01630        0.75690
C         -1.96100       -5.07000        1.53620
C         -2.66500       -3.92390        1.73230
C         -2.25290       -2.65240        1.25810
C         -3.26640       -1.53510        1.51220
C         -4.35200       -1.59440        0.40530
C         -3.99590       -1.63280        2.87180
Pd         2.78020       -1.86970       -0.29550
Br         2.30420       -1.38790       -2.69620
C          3.07080       -2.39370        1.96440
C          2.23780       -3.02860        2.82480
P          4.78960       -3.26190       -0.57060
O          5.03750       -5.02370       -0.57250
C          4.59880       -5.77090       -1.76890
C          4.58880       -7.29460       -1.50740
C          3.18460       -5.50260       -2.32360
O          5.04880       -3.25970       -2.30840
C          5.49170       -2.29010       -3.26190
C          6.70350       -1.42160       -2.95300
C          5.83440       -3.10640       -4.53170
O          5.89020       -3.14720        0.75810
C          7.19500       -3.73740        0.55240
C          7.83540       -3.64630       -0.84810
C          8.19300       -3.03290        1.48550
H          1.03620        5.11690       -1.12430
H         -0.21090        2.64460       -2.35940
H          0.91270        3.82170       -3.03540
H         -0.70990        4.37910       -2.48920
H         -0.72450        3.46090        0.70750
H         -0.97410        5.09280        0.02770
H          0.39490        4.74310        1.12650
H          3.06570        5.10620       -0.73140
H          5.08420        4.38460        0.25020
H          5.22650        2.30280        1.28470
H          3.00100       -0.36590        0.87320
H          5.77760        0.37110        1.18950
H          4.85640       -0.36440       -0.12870
H          5.15930       -1.14760        1.38420
H          1.42220        0.39690        2.27830
H          2.41040       -0.48690        3.29990
H          2.50320        1.30150        3.26030
H         -0.81030        1.84450       -0.61070
H         -0.69930        1.22990        1.08930
H         -1.00090       -0.19170       -1.58820
H         -2.24220       -0.20000       -0.39280
H          1.04500       -3.01920       -1.11580
H          1.58760       -5.36260        0.92320
H          2.10500       -3.75970        0.59280
H          2.82440       -4.88850       -0.10840
H          0.05940       -5.83990       -1.70400
H          0.86820       -4.65420       -2.80960
H         -0.74470       -4.32050       -2.26710
H         -0.39550       -5.96650        0.54450
H         -2.29280       -6.02500        1.92440
H         -3.56600       -4.08930        2.28520
H         -2.75940       -0.55710        1.56180
H         -4.87690       -2.57760        0.41220
H         -3.93930       -1.47680       -0.61710
H         -5.11500       -0.80220        0.55700
H         -4.68270       -2.50570        2.94080
H         -4.66320       -0.75770        3.00510
H         -3.26650       -1.67530        3.70470
H          3.98500       -2.20830        2.49950
H          1.27110       -3.43490        2.56350
H          2.57250       -3.21780        3.84880
H          5.29330       -5.57830       -2.61000
H          3.94620       -7.53740       -0.62910
H          5.60140       -7.70170       -1.35580
H          4.13830       -7.84140       -2.37530
H          2.42730       -6.05070       -1.72100
H          3.00360       -5.95750       -3.31500
H          2.97260       -4.42070       -2.40080
H          4.68120       -1.61420       -3.54310
H          7.63530       -2.01180       -2.96400
H          6.55340       -0.82830       -2.03210
H          6.84440       -0.71050       -3.79970
H          6.65760       -3.82780       -4.31820
H          6.16110       -2.45890       -5.37410
H          4.95900       -3.69900       -4.87570
H          7.14760       -4.80960        0.83670
H          8.04600       -2.58670       -1.05610
H          8.82520       -4.15640       -0.86150
H          7.24830       -4.13330       -1.64880
H          8.31190       -1.96470        1.18890
H          9.19850       -3.51030        1.42110
H          7.85000       -3.07200        2.53500
