90

P          1.05970        0.04080        0.06910
C          0.14590       -0.07420        1.71610
C         -1.37120        0.06390        1.99060
C         -1.49430       -0.52440        3.40010
C         -0.67300       -1.79230        3.26640
C          0.57900       -1.29970        2.57080
C          0.57330        1.67230       -0.64910
C         -0.91260        1.79300       -1.01810
C         -1.07080        3.28820       -1.20560
C         -0.38210        3.80460        0.04530
C          0.87020        2.92200        0.19940
C          0.47370       -1.62490       -0.66920
C         -1.04720       -1.74480       -0.93100
C         -1.17200       -2.97520       -1.80380
C         -0.09750       -2.70360       -2.82310
C          1.07460       -2.11940       -2.01060
Pd         3.51970        0.04080        0.06910
Br         3.47550        0.33360       -2.39150
C          3.49000       -0.19400        2.10480
C          3.13700        0.81940        2.89730
P          5.97970        0.04080        0.06910
C          6.57150        0.83200        1.72420
C          6.28120        0.29920        3.02140
C          6.62800        0.97680        4.20990
C          7.26880        2.21450        4.17120
C          7.55630        2.76690        2.93940
C          7.21830        2.09770        1.77490
C          6.44080       -1.66980        0.55010
C          5.92710       -2.70150       -0.24890
C          6.32800       -4.02950       -0.05080
C          7.25140       -4.34240        0.94560
C          7.78570       -3.32980        1.73740
C          7.40590       -2.00540        1.53070
C          6.70410        0.56490       -1.60190
C          6.37570        1.97480       -2.19020
C          7.01950        3.14780       -1.45970
C          8.55980        2.92030       -1.32190
C          8.99040        1.49970       -0.85410
C          8.25910        0.41820       -1.64830
H          0.51950        0.79830        2.29320
H         -2.00620       -0.55800        1.35980
H         -1.76410        1.09800        1.94420
H         -2.53820       -0.72190        3.72510
H         -1.00400        0.14830        4.14070
H         -1.21020       -2.48590        2.58060
H         -0.45920       -2.33820        4.21390
H          1.09660       -2.13670        2.06160
H          1.27550       -0.94770        3.35610
H          1.08720        1.80230       -1.62750
H         -1.56490        1.48490       -0.18220
H         -1.20780        1.22610       -1.92130
H         -2.13250        3.61110       -1.29600
H         -0.51280        3.60830       -2.11230
H         -1.07040        3.55960        0.88820
H         -0.19380        4.89810        0.07650
H          1.02440        2.74260        1.28030
H          1.77520        3.40580       -0.22620
H          0.69350       -2.45100        0.03100
H         -1.41270       -0.88070       -1.51770
H         -1.68190       -1.90530       -0.05700
H         -2.18700       -3.09830       -2.25070
H         -0.92650       -3.87930       -1.20660
H         -0.49680       -1.89100       -3.47520
H          0.15330       -3.56360       -3.48150
H          1.53330       -1.36270       -2.65370
H          1.80900       -2.92280       -1.77250
H          3.77280       -1.14980        2.52540
H          2.83980        1.76910        2.47030
H          3.12620        0.69160        3.97520
H          5.78900       -0.64470        3.14340
H          6.39660        0.55030        5.17470
H          7.52760        2.74930        5.07180
H          8.04190        3.73630        2.88150
H          7.48020        2.63850        0.93940
H          5.23410       -2.47950       -1.05290
H          5.94300       -4.81270       -0.68880
H          7.57180       -5.36610        1.09440
H          8.52140       -3.56640        2.49490
H          7.92130       -1.27370        2.12880
H          6.29620       -0.18030       -2.31790
H          5.29730        2.18660       -2.25590
H          6.77370        2.00300       -3.22950
H          6.42770        3.28600       -0.54870
H          6.85360        4.09550       -2.00400
H          9.00360        3.70120       -0.66020
H          8.99340        3.06060       -2.33150
H          8.84500        1.28320        0.20630
H         10.09090        1.40380       -0.97280
H          8.56950       -0.59140       -1.29500
H          8.59120        0.51580       -2.70290
