30

C          0.91200       -0.01930        0.04350
O         -0.21600       -0.01960        0.04300
Pd         3.06200       -0.01930        0.04350
Br         2.90470        2.41880       -0.39300
C          2.90000       -1.20850       -1.66020
C          3.74090       -1.04650       -2.68100
N          5.16200       -0.01930        0.04350
C          5.92110       -1.05900       -0.04880
C          5.44880       -2.47280       -0.07700
C          6.29360       -3.49500       -0.55620
C          5.86090       -4.82450       -0.59200
C          4.58370       -5.15710       -0.14150
C          3.74050       -4.16470        0.35660
C          4.16880       -2.83280        0.39270
N          7.28140       -0.70820       -0.07100
C          7.39490        0.72020       -0.06640
C          5.95110        1.18480        0.17250
H          2.10030       -1.93780       -1.73330
H          4.53410       -0.30910       -2.62590
H          3.63670       -1.64860       -3.57770
H          7.28630       -3.27700       -0.92150
H          6.51650       -5.59680       -0.97420
H          4.25010       -6.18900       -0.17170
H          2.75340       -4.42630        0.71640
H          3.49940       -2.09240        0.80120
H          8.07800       -1.35450       -0.15850
H          7.75840        1.01820       -1.07360
H          8.07880        1.09380        0.72450
H          5.68280        1.94350       -0.59110
H          5.80550        1.58650        1.19770
