84

P          1.04880        0.01710        0.08560
C          0.03470        1.58620       -0.26920
C         -1.48490        1.72980       -0.49300
C         -1.67280        3.24710       -0.41390
C         -0.88540        3.58700        0.83080
C          0.39930        2.78850        0.65970
C          0.55240       -1.13700       -1.28180
C         -0.92130       -1.56620       -1.28580
C         -1.07320       -2.16510       -2.67140
C         -0.40650       -1.09810       -3.52010
C          0.83400       -0.67110       -2.72000
C          0.49830       -0.23500        1.89360
C         -1.02450       -0.44310        2.10300
C         -1.13440       -1.06590        3.47950
C         -0.05290       -2.11560        3.39720
C          1.11790       -1.39500        2.71080
Pd         3.50880        0.01710        0.08560
Br         3.38400       -2.46940        0.16170
C          3.26670        1.99960       -0.28810
C          2.88390        2.35950       -1.51990
P          5.96880        0.01710        0.08560
C          6.90120        0.94430        1.40850
C          7.21270        0.27900        2.62060
C          7.72910        0.94710        3.72850
C          7.96760        2.31330        3.66930
Cl         8.58520        3.15100        5.08050
C          7.67880        3.00830        2.49920
C          7.14010        2.34250        1.39070
C          6.43970       -1.74420        0.33970
C          7.20750       -2.41060       -0.63480
C          7.58480       -3.74600       -0.47370
C          7.18550       -4.45550        0.65750
Cl         7.64560       -6.13750        0.84640
C          6.40480       -3.82600        1.62740
C          6.03720       -2.48450        1.47240
C          6.59060        1.19920       -1.24170
C          6.00030        2.41790       -1.64190
C          6.45880        3.15070       -2.74210
C          7.56500        2.71760       -3.45700
Cl         8.12800        3.63360       -4.84230
C          8.22740        1.56210       -3.04690
C          7.73890        0.81390       -1.96920
H          0.38350        1.90930       -1.26950
H         -2.09320        1.29020        0.30210
H         -1.84910        1.35500       -1.46810
H         -2.73430        3.56780       -0.35560
H         -1.19380        3.73360       -1.29470
H         -1.43670        3.17310        1.70170
H         -0.70810        4.67180        1.01370
H          0.81890        2.57500        1.65770
H          1.13350        3.43210        0.13690
H          1.06550       -2.11000       -1.14820
H         -1.60480       -0.71180       -1.21820
H         -1.19070       -2.28270       -0.48420
H         -2.13120       -2.35990       -2.95430
H         -0.49730       -3.11350       -2.72930
H         -1.11000       -0.23210       -3.52460
H         -0.20980       -1.36910       -4.57810
H          0.93940        0.41940       -2.85660
H          1.75940       -1.18270       -3.06340
H          0.74230        0.66080        2.49280
H         -1.41750       -1.18760        1.38330
H         -1.64050        0.46560        2.08540
H         -2.14370       -1.48600        3.69820
H         -0.88410       -0.30650        4.25160
H         -0.42320       -2.90570        2.70390
H          0.19890       -2.59520        4.36720
H          1.70820       -2.13720        2.16520
H          1.75500       -0.93240        3.50150
H          3.46560        2.74050        0.47760
H          2.71700        1.60090       -2.27240
H          2.74610        3.40290       -1.78190
H          7.03810       -0.75430        2.78450
H          7.92290        0.39620        4.64160
H          7.84430        4.07710        2.45600
H          6.90190        2.96830        0.55680
H          7.51840       -1.92760       -1.53810
H          8.18190       -4.22930       -1.23710
H          6.07520       -4.37640        2.49900
H          5.41090       -2.03340        2.23130
H          5.20340        2.86440       -1.14270
H          5.94430        4.06050       -3.03410
H          9.11640        1.23790       -3.57570
H          8.31110       -0.04700       -1.69000
