102

P          0.93250       -0.03310        0.06590
C         -0.02320       -0.42210       -1.43760
C         -1.42190       -0.55000       -1.51580
C         -2.04690       -0.72400       -2.75870
C         -1.29340       -0.72760       -3.93850
C          0.09140       -0.56840       -3.87620
C          0.71770       -0.42230       -2.63460
C          0.66920       -1.57290        1.03280
C          1.61770       -1.84090        2.02140
C          1.46590       -2.86600        2.95280
C          0.33010       -3.66320        2.91400
C         -0.63950       -3.43200        1.93530
C         -0.47870       -2.39220        1.00740
C          0.06500        1.53140        0.30030
C         -0.73760        1.72650        1.43270
C         -1.48700        2.90130        1.56800
C         -1.44600        3.88010        0.57050
C         -0.64450        3.69330       -0.55850
C          0.11370        2.52660       -0.69250
Pd         3.39250       -0.03310        0.06590
Br         3.39250       -2.52450       -0.64200
C          3.39250        2.03500        0.65360
C          4.34500        2.82220        1.09570
P          5.85250       -0.03310        0.06590
C          6.56400       -1.80320       -0.32910
C          6.95680       -2.22080       -1.66030
C          7.27210       -1.33150       -2.80090
C          7.06950       -3.58220       -2.01550
C          6.88260       -4.59860       -1.10760
C          6.92540       -6.05240       -1.53090
C          6.64690       -4.26080        0.21090
C          6.47660       -2.91260        0.61600
C          6.21010       -2.79040        2.08730
C          6.17220        1.67420       -0.93300
C          6.89180        2.91030       -0.47120
C          7.51800        3.24750        0.87220
C          7.05120        4.04790       -1.31020
C          6.57610        4.10900       -2.59920
C          6.75170        5.34880       -3.45780
C          5.91840        2.99590       -3.07960
C          5.70640        1.83700       -2.30410
C          4.95730        0.78450       -3.08580
C          6.57200        0.09330        1.89120
C          5.73730        0.06910        3.08010
C          4.26520        0.17510        3.12900
C          6.25560       -0.14350        4.37480
C          7.60320       -0.26010        4.61510
C          8.10010       -0.61480        6.00220
C          8.46860       -0.08010        3.55700
C          8.02350        0.12390        2.21600
C          9.17030        0.36510        1.25960
H         -2.03860       -0.49010       -0.62960
H         -3.12330       -0.82780       -2.81830
H         -1.77960       -0.83440       -4.89830
H          0.67390       -0.53780       -4.78740
H          1.79180       -0.26530       -2.61760
H          2.46950       -1.23060        2.07510
H          2.22040       -3.02190        3.71580
H          0.19730       -4.44980        3.64580
H         -1.52970       -4.04500        1.91610
H         -1.27880       -2.24950        0.31380
H         -0.79600        0.96610        2.20060
H         -2.11270        3.04770        2.43910
H         -2.04100        4.77950        0.66730
H         -0.62140        4.44620       -1.33620
H          0.71270        2.38540       -1.58330
H          2.42110        2.49950        0.65640
H          5.28630        2.40670        1.28850
H          4.13620        3.85160        1.37260
H          7.34810       -0.28130       -2.49140
H          6.55230       -1.54800       -3.62040
H          8.27640       -1.60690       -3.19720
H          7.29470       -3.86290       -3.04270
H          7.05010       -6.15620       -2.63040
H          5.97040       -6.54520       -1.26160
H          7.76120       -6.58780       -1.02920
H          6.55140       -5.07330        0.91650
H          6.16200       -3.76510        2.61720
H          5.24910       -2.28720        2.26620
H          7.08310       -2.29720        2.55710
H          7.41300        2.50320        1.65820
H          7.04170        4.17650        1.27090
H          8.59380        3.50630        0.73380
H          7.56280        4.94000       -0.94640
H          7.27740        6.16730       -2.91880
H          5.76520        5.74250       -3.77570
H          7.34340        5.11160       -4.36660
H          5.55750        3.06510       -4.10570
H          4.28000        1.24660       -3.83500
H          4.36220        0.09960       -2.44930
H          5.66390        0.32680       -3.77910
H          3.86480        0.27690        2.14410
H          3.99120        1.08270        3.72710
H          3.82950       -0.70390        3.64410
H          5.58290       -0.22150        5.22260
H          7.26890       -0.77890        6.71920
H          8.75570        0.19290        6.40810
H          8.68170       -1.55030        5.95440
H          9.53280       -0.11040        3.80400
H         10.16240        0.34630        1.77850
H          9.15750        1.38180        0.86660
H          9.21610       -0.35440        0.41590
