75

P          0.93900       -0.05620       -0.05590
C         -0.02420       -1.21000        0.95630
C         -0.62020       -2.38340        0.43530
C         -1.09630       -3.38460        1.29890
C         -0.98840       -3.23200        2.68560
C         -0.39220       -2.09290        3.21350
C          0.08850       -1.10690        2.36290
C          0.69050        1.45460        0.91450
C          1.77520        2.13470        1.47590
C          1.56920        3.29910        2.22510
C          0.27380        3.78440        2.42340
C         -0.81760        3.10340        1.87510
C         -0.61080        1.94230        1.12410
C          0.35710        0.10630       -1.75930
C         -0.23450        1.29950       -2.20220
C         -0.73680        1.39630       -3.50190
C         -0.65960        0.30530       -4.36770
C         -0.06340       -0.88630       -3.93990
C          0.44690       -0.98690       -2.63990
Pd         3.39900       -0.05620       -0.05590
Br         3.39900        1.98460       -1.65060
C          3.39900       -1.75030        1.26800
C          3.19290       -1.65690        2.57800
P          5.85900       -0.05620       -0.05590
O          7.28320       -0.83680        0.51980
C          6.87280       -2.16510        0.92300
C          6.95430       -3.21760       -0.21050
C          7.66550       -2.68800        2.11710
O          6.06820       -0.81710       -1.58410
C          5.68560       -0.11300       -2.74930
C          6.35060        1.26830       -2.96070
C          6.11960       -0.98600       -3.93010
O          6.45360        1.54110       -0.07800
C          5.96140        2.27240        1.02900
C          6.45360        1.73850        2.39030
C          6.42680        3.71910        0.86350
H         -0.65200       -2.54750       -0.63320
H         -1.53340       -4.28080        0.89330
H         -1.34670       -4.01360        3.34640
H         -0.27560       -1.99500        4.29060
H          0.61380       -0.27000        2.82130
H          2.77160        1.76120        1.33730
H          2.41360        3.82450        2.65090
H          0.11640        4.68400        3.00410
H         -1.82170        3.47390        2.03090
H         -1.46360        1.42350        0.70600
H         -0.32570        2.15090       -1.54830
H         -1.20490        2.31790       -3.83370
H         -1.06570        0.37700       -5.36970
H         -0.01010       -1.73240       -4.61180
H          0.89560       -1.91690       -2.32060
H          3.78840       -2.69050        0.89160
H          2.98120       -0.70370        3.04410
H          3.32960       -2.54120        3.19730
H          5.84670       -2.18120        1.32210
H          7.99150       -3.31620       -0.58620
H          6.27920       -3.00770       -1.05750
H          6.60880       -4.20750        0.16010
H          8.74920       -2.75970        1.88220
H          7.30300       -3.70580        2.38840
H          7.50520       -2.04320        3.00880
H          4.58320       -0.06760       -2.80080
H          7.45690        1.19000       -2.93170
H          6.03640        2.03580       -2.24130
H          6.04320        1.68020       -3.94610
H          7.22890       -1.07830       -3.95130
H          5.78190       -0.54280       -4.89160
H          5.68710       -2.00380       -3.83910
H          4.85690        2.29360        1.00990
H          7.56240        1.71270        2.42660
H          6.06190        0.71980        2.59130
H          6.08090        2.39160        3.21000
H          7.53760        3.77230        0.87370
H          6.02900        4.35460        1.68360
H          6.06210        4.12520       -0.10360
