45

P          0.95670        0.08730       -0.02240
F         -0.71190        0.21570        0.01000
F          0.94200        0.19750       -1.69280
F          0.87150       -1.39150        0.75760
Pt         3.41670        0.08730       -0.02240
Br         3.34520       -2.27230       -0.78240
C          3.28170        2.09800        0.51100
C          2.82750        3.01270       -0.35920
P          5.87670        0.08730       -0.02240
O          7.33310       -0.79520       -0.23400
C          6.97920       -2.00810       -0.93450
C          7.03700       -1.85440       -2.47130
C          7.85980       -3.18590       -0.53020
O          6.07460        0.70120       -1.61480
C          5.63180        2.01810       -1.87350
C          6.19660        3.13240       -0.95840
C          6.06270        2.35440       -3.30160
O          6.44570        1.19680        1.14370
C          5.94210        0.87910        2.42450
C          6.47090       -0.45180        2.97050
C          6.37620        2.00960        3.35650
H          3.57430        2.44370        1.50480
H          2.52060        2.71530       -1.36020
H          2.76120        4.06580       -0.09880
H          5.96450       -2.37400       -0.66070
H          8.04640       -1.52120       -2.78460
H          6.28270       -1.15650       -2.87560
H          6.79950       -2.81820       -2.96990
H          8.92150       -2.98210       -0.76640
H          7.54310       -4.09720       -1.09510
H          7.73950       -3.41670        0.54780
H          4.53890        2.01130       -1.89520
H          7.30990        3.12000       -0.94520
H          5.81260        3.09030        0.07260
H          5.86630        4.12870       -1.32560
H          7.17210        2.38680       -3.38000
H          5.65300        3.34210       -3.60610
H          5.67910        1.58640       -4.00300
H          4.83220        0.84530        2.42270
H          7.58820       -0.45510        2.99800
H          6.12360       -1.31310        2.36900
H          6.09740       -0.61370        4.00970
H          7.47870        2.07720        3.40440
H          5.97580        1.85790        4.38170
H          5.98260        2.98370        2.97500
