18

P          0.94640        0.05880        0.06060
F         -0.72610        0.02760        0.00030
F          0.94260       -1.35970        0.94940
F          0.88740        1.55550        0.80730
Pt         3.40640        0.05880        0.06060
Br         3.41480        1.05100        2.33980
C          3.41310       -0.78150       -1.82790
C          3.49530       -2.10190       -1.97060
C          5.55640        0.05880        0.06060
N          6.30970        0.51690        1.08060
C          7.57480        0.32930        0.66440
C          7.54320       -0.23400       -0.59220
O          6.28660       -0.38530       -0.93540
H          3.36250       -0.13980       -2.70100
H          3.55190       -2.73920       -1.09510
H          3.50930       -2.54640       -2.96070
H          8.45210        0.58820        1.23670
H          8.39390       -0.50550       -1.20040
