99

P          0.95810        0.05650        0.07110
C          0.16700        1.09290       -1.24530
C         -0.93800        0.83530       -2.09190
C         -1.15310        1.64870       -3.23110
C         -0.27420        2.69490       -3.52470
C         -0.34460        3.49320       -4.81260
C          0.72500        3.02760       -2.61730
C          0.89340        2.25440       -1.47430
C          0.47000       -1.55870       -0.66460
C          0.24840       -1.81570       -2.03110
C         -0.39410       -2.99160       -2.44160
C         -0.80520       -3.94980       -1.50140
C         -1.58130       -5.16760       -1.92070
C         -0.51540       -3.74250       -0.14880
C          0.10200       -2.55980        0.25840
C         -0.00150        0.64390        1.51310
C         -0.88340        1.74180        1.44100
C         -1.68900        2.08430        2.52800
C         -1.63670        1.34220        3.71330
C         -2.54720        1.67030        4.86040
C         -0.73840        0.27240        3.81160
C          0.07030       -0.07230        2.72280
Pt         3.41810        0.05650        0.07110
Br         3.41810       -0.84650       -2.35640
C          3.41810        0.80610        2.08620
C          4.38830        1.21940        2.90510
C          5.56810        0.05650        0.07110
N          6.39090        0.41940       -0.92050
C          6.17830        1.11560       -2.23870
C          5.02630        1.91660       -2.54350
C          3.99650        2.27180       -1.57250
C          4.78750        2.49260       -3.81930
C          5.70050        2.37880       -4.84750
C          5.43650        2.94570       -6.22340
C          6.89570        1.75150       -4.57260
C          7.16670        1.15260       -3.31310
C          8.57330        0.62120       -3.23000
C          7.73960        0.17200       -0.46400
C          7.63990       -0.00300        1.02460
N          6.27390       -0.36740        1.26130
C          5.94420       -1.36420        2.32140
C          6.62810       -1.30810        3.59410
C          7.56430       -0.21310        4.04530
C          6.45170       -2.26950        4.58350
C          5.55860       -3.31160        4.44450
C          5.38450       -4.29500        5.58820
C          4.83120       -3.40660        3.25660
C          4.99980       -2.47290        2.18870
C          4.16970       -2.77730        0.96160
H         -1.57940       -0.01370       -1.93480
H         -1.95820        1.41130       -3.91550
H         -1.19920        3.18040       -5.44510
H          0.59000        3.31350       -5.39340
H         -0.41230        4.58030       -4.60370
H          1.40150        3.85380       -2.80030
H          1.67110        2.52180       -0.78010
H          0.49920       -1.09240       -2.79180
H         -0.61470       -3.13450       -3.49080
H         -1.79390       -5.16000       -3.01060
H         -2.56230       -5.18000       -1.39120
H         -1.02510       -6.09210       -1.66510
H         -0.81820       -4.47490        0.59130
H          0.23990       -2.42290        1.31580
H         -0.99280        2.33740        0.54980
H         -2.37470        2.91720        2.43180
H         -3.21400        2.52560        4.61830
H         -1.95280        1.92580        5.76180
H         -3.18800        0.79040        5.08260
H         -0.68080       -0.30920        4.72300
H          0.73890       -0.91550        2.82740
H          2.43420        0.89840        2.50800
H          5.42750        1.25610        2.66180
H          4.11740        1.56550        3.89940
H          4.19040        1.98760       -0.53650
H          3.13880        1.76240       -2.00010
H          3.83530        3.37670       -1.56360
H          3.87780        3.05710       -4.01060
H          4.43630        3.42270       -6.30670
H          5.47770        2.12010       -6.96650
H          6.20690        3.70040       -6.49840
H          7.63020        1.74460       -5.36990
H          9.13690        0.72910       -4.17880
H          8.57290       -0.45240       -2.98670
H          9.15260        1.24970       -2.52540
H          8.41320        1.03910       -0.60610
H          8.09660       -0.76930       -0.92520
H          7.79320        1.00860        1.44130
H          8.39470       -0.73670        1.40210
H          7.58180        0.68480        3.43480
H          8.59330       -0.60790        4.19140
H          7.18350        0.16740        5.01770
H          6.99800       -2.19110        5.51660
H          6.07450       -4.06720        6.43370
H          5.59910       -5.33530        5.26620
H          4.35330       -4.23790        5.98720
H          4.13770       -4.23700        3.17650
H          3.52940       -3.67270        1.10550
H          4.82210       -2.98250        0.08880
H          3.47410       -1.95200        0.75800
