55

P          0.94160       -0.07900        0.01850
C          0.12290       -1.18890       -1.14740
C         -1.25080       -1.45530       -1.23040
C         -1.72130       -2.37170       -2.18930
C         -0.82630       -3.02750       -3.05250
Cl        -1.40080       -4.18810       -4.23280
C          0.53540       -2.75130       -2.97490
C          0.99850       -1.83250       -2.04160
C          0.41470       -1.10740        1.45360
C          0.63660       -2.48620        1.64680
C          0.19540       -3.13070        2.81260
C         -0.50740       -2.42390        3.78880
Cl        -1.06310       -3.22850        5.24580
C         -0.78270       -1.07520        3.59430
C         -0.32670       -0.42850        2.44380
C          0.18050        1.57720       -0.08690
C         -0.74490        1.93870       -1.07300
C         -1.32330        3.22000       -1.06140
C         -0.96710        4.14170       -0.07400
Cl        -1.68210        5.75220       -0.05590
C         -0.05480        3.79010        0.91830
C          0.50610        2.50690        0.91930
Pt         3.40160       -0.07900        0.01850
Br         3.43510       -2.58830        0.11070
C          3.08760        1.93980       -0.33610
C          3.59370        2.87520        0.45380
N          5.50160       -0.07900        0.01850
C          6.36070        0.97030       -0.37810
C          5.95860        2.29550       -0.96370
C          7.76890        0.81150       -0.37740
C          8.35480       -0.36450        0.01890
C          7.54570       -1.39400        0.41670
C          6.15980       -1.23820        0.40900
H         -1.94410       -0.96280       -0.56460
H         -2.77920       -2.58050       -2.26260
H          1.24250       -3.24840       -3.63150
H          2.05970       -1.62960       -2.01470
H          1.11980       -3.09590        0.91960
H          0.39490       -4.18470        2.95500
H         -1.34830       -0.51890        4.33240
H         -0.56990        0.61570        2.34300
H         -1.04100        1.24250       -1.84000
H         -2.04780        3.49110       -1.81290
H          0.23080        4.49480        1.68930
H          1.20840        2.25230        1.69910
H          2.31670        2.27670       -1.01550
H          4.20470        2.58890        1.30150
H          3.30010        3.91210        0.31640
H          5.19840        2.18480       -1.76210
H          6.80040        2.81300       -1.47120
H          5.81050        3.02970       -0.16200
H          8.43500        1.60350       -0.70120
H          9.43270       -0.47540        0.01150
H          7.99110       -2.32840        0.73840
H          5.68760       -2.10290        0.78560
