58

P          1.04900        0.07640       -0.04200
C          0.23040       -1.41840       -0.68200
C          1.09050       -2.45980       -1.08400
C          0.59940       -3.66300       -1.60290
C          1.54250       -4.74680       -2.05740
C         -0.78580       -3.84280       -1.69960
C         -1.65530       -2.83080       -1.26670
C         -1.15580       -1.62020       -0.75500
C          0.33800        0.10030        1.61980
C          0.70650       -0.83630        2.60730
C          0.16540       -0.74300        3.90710
C          0.57640       -1.68690        5.00280
C         -0.76510        0.26420        4.19900
C         -1.14550        1.17680        3.21430
C         -0.59370        1.09980        1.93410
C          0.62770        1.23330       -1.39020
C         -0.25110        0.94880       -2.46340
C         -0.63730        1.95890       -3.36070
C         -1.62720        1.67820       -4.45750
C         -0.13020        3.25340       -3.21100
C          0.74710        3.54510       -2.16460
C          1.11140        2.54480       -1.25900
Pt         3.50900        0.07640       -0.04200
Br         3.50900       -0.60320       -2.54120
C          3.50900        0.64050        2.03270
C          2.67290        1.45990        2.66830
O          5.55900        0.07640       -0.04200
C          6.37120        0.47090        0.92670
N          7.66700        0.34100        0.58200
C          7.63510       -0.16430       -0.65970
C          6.32550       -0.31370       -1.04170
H          2.15850       -2.33560       -0.98720
H          2.60640       -4.46450       -1.89770
H          1.40120       -4.93590       -3.14310
H          1.34770       -5.68650       -1.50110
H         -1.18120       -4.76760       -2.09570
H         -2.72280       -2.99290       -1.33440
H         -1.84180       -0.85140       -0.42930
H          1.43220       -1.60590        2.37500
H          1.33950       -2.41400        4.65820
H         -0.30970       -2.24360        5.37460
H          1.00780       -1.10510        5.84690
H         -1.18860        0.34760        5.19230
H         -1.86300        1.95320        3.44770
H         -0.88970        1.82500        1.18850
H         -0.68090       -0.02350       -2.60520
H         -1.99280        0.62930       -4.42370
H         -1.15760        1.86100       -5.44510
H         -2.50920        2.34660       -4.34630
H         -0.42790        4.04250       -3.89190
H          1.12200        4.55150       -2.04380
H          1.76170        2.80510       -0.43280
H          4.31770        0.27050        2.64200
H          1.87350        1.97490        2.16450
H          2.82910        1.65960        3.72590
H          6.09750        0.90110        1.86900
H          8.50950       -0.40880       -1.24790
H          6.02550       -0.71180       -1.99160
