59

P          0.97680        0.00480        0.09720
C          0.21440        1.63900        0.58630
C         -1.31170        1.78610        0.69990
C          0.83110        2.05090        1.93570
C          0.53270       -0.32440       -1.68620
C          1.00620       -1.72400       -2.08760
C         -0.98260       -0.31470       -1.94300
C          0.28250       -1.07720        1.39290
Pt         3.43680        0.00480        0.09720
Br         3.43680        1.89160       -1.67710
C          3.43680       -1.56150        1.57000
C          3.75410       -2.84990        1.48670
C          5.58680        0.00480        0.09720
N          6.39360       -0.99030       -0.41230
C          6.01740       -2.21200       -1.13330
C          4.79680       -1.94370       -1.99780
C          7.14290       -2.73120       -2.05970
C          7.65930       -0.53170       -0.25350
C          7.62490        0.69120        0.35400
N          6.33920        1.02760        0.57080
C          5.89450        2.19150        1.34400
C          6.47690        2.07310        2.76900
C          6.34090        3.49860        0.69210
H          0.57440        2.38070       -0.15980
H         -1.74460        1.09110        1.44280
H         -1.84730        1.69500       -0.24680
H         -1.54010        2.82450        1.03050
H          0.48350        1.39270        2.75800
H          0.54410        3.09080        2.19950
H          1.94110        2.00830        1.89080
H          1.00860        0.42240       -2.35290
H          0.53020       -2.50680       -1.45780
H          2.08500       -1.81280       -2.00100
H          0.75680       -1.92900       -3.15210
H         -1.51700       -0.97390       -1.22220
H         -1.21310       -0.67570       -2.96880
H         -1.38380        0.70290       -1.93450
H         -0.82680       -1.01540        1.33160
H          0.60400       -0.80200        2.41150
H          0.55250       -2.13010        1.18000
H          3.08540       -1.21500        2.53670
H          4.07950       -3.32610        0.58870
H          3.67260       -3.45790        2.38610
H          5.82310       -3.02220       -0.42520
H          4.99890       -1.13410       -2.73320
H          4.00150       -1.61390       -1.31880
H          4.46760       -2.85170       -2.53710
H          7.43830       -1.96470       -2.80650
H          6.80570       -3.64540       -2.60230
H          8.03940       -3.03210       -1.46790
H          8.56310       -1.04200       -0.56240
H          8.48700        1.27770        0.64000
H          4.78700        2.18850        1.43080
H          7.58940        2.04520        2.75190
H          6.12350        1.13350        3.24780
H          6.16540        2.92720        3.40430
H          7.44420        3.52310        0.56230
H          6.04640        4.35540        1.33610
H          5.85260        3.61080       -0.29600
