88

P          0.99040       -0.06060       -0.07900
C          0.13940        0.48560       -1.73820
C         -1.40220        0.44820       -1.78190
C          0.57120        1.93240       -2.08420
C          0.63560       -0.33800       -2.95690
C          0.58250       -2.00030        0.23890
C          1.06290       -3.10350       -0.75520
C          1.20830       -2.55690        1.55960
C         -0.94590       -2.21940        0.32420
C          0.21090        1.20490        1.14800
C          0.12230        1.21530        2.77950
C          1.42290        1.19040        3.63050
C         -0.61680        2.52150        3.16740
C         -0.74550        0.08370        3.34990
Pt         3.45040       -0.06060       -0.07900
Br         3.45040       -1.82430       -1.97560
C          3.45040        1.40350        1.49550
C          2.93840        2.64610        1.44590
P          5.91040       -0.06060       -0.07900
C          7.13390       -1.07260        0.82880
C          8.08670       -1.93570        0.25130
C          8.90670       -2.72940        1.06470
C          8.81040       -2.65750        2.45490
C          7.88880       -1.79650        3.04230
C          7.05000       -1.02530        2.23810
C          6.31830       -0.39610       -1.82710
C          6.54630        0.76100       -2.60060
C          6.84100        0.68110       -3.96210
C          6.92010       -0.56060       -4.57950
C          6.70930       -1.72550       -3.83410
C          6.40830       -1.65000       -2.46310
C          6.45040        1.58670        0.73070
C          7.67550        1.89760        1.40250
O          8.77910        1.10790        1.27010
C         10.06320        1.64340        1.34420
C          7.80390        3.10880        2.14820
C          6.78510        4.05550        2.15730
C          5.73460        3.87820        1.30640
C          5.60020        2.69800        0.55570
H         -1.86920        1.09010       -1.02020
H         -1.81530       -0.55990       -1.73690
H         -1.75490        0.81460       -2.77400
H          0.23280        2.67090       -1.34020
H          0.13030        2.24210       -3.06380
H          1.67540        2.00540       -2.20530
H          0.32440       -1.38350       -2.93050
H          1.72530       -0.23840       -3.09490
H          0.20500        0.03610       -3.91170
H          2.12140       -3.37400       -0.60100
H          0.81790       -2.96660       -1.80710
H          0.59970       -4.08760       -0.51650
H          2.31410       -2.50350        1.54360
H          0.93370       -3.63430        1.69540
H          0.90940       -2.14720        2.49810
H         -1.40360       -2.20250       -0.67280
H         -1.44330       -1.50910        1.00850
H         -1.19100       -3.24870        0.67370
H         -0.85820        1.17460        0.88160
H          0.53050        2.20050        0.81830
H          1.95800        2.14920        3.64090
H          2.06780        0.32830        3.37430
H          1.19880        1.08250        4.71470
H         -0.05490        3.41300        2.81430
H         -0.72900        2.61130        4.27180
H         -1.63370        2.54580        2.72040
H         -0.25500       -0.86070        3.30450
H         -1.73120        0.01150        2.85830
H         -0.90440        0.22000        4.44390
H          3.98010        1.10030        2.39340
H          2.44890        3.04600        0.57250
H          3.07450        3.30820        2.29860
H          8.21150       -2.04090       -0.80760
H          9.61640       -3.40970        0.61440
H          9.44710       -3.27310        3.07720
H          7.81490       -1.73480        4.12030
H          6.32720       -0.37760        2.72410
H          6.48090        1.74420       -2.15000
H          6.99990        1.58520       -4.53760
H          7.14620       -0.61960       -5.63990
H          6.77150       -2.68710       -4.32520
H          6.23950       -2.56130       -1.91010
H         10.80380        0.95860        0.88910
H         10.34780        1.85430        2.39710
H         10.12740        2.59950        0.76970
H          8.68170        3.33950        2.72710
H          6.88310        4.95810        2.75770
H          4.97860        4.66000        1.23230
H          4.77460        2.61050       -0.11630
