97

P          1.06620        0.00120        0.07490
C          0.05960       -0.38780        1.74450
C         -1.48650       -0.50510        1.72070
C          0.48450       -1.77300        2.34520
C          0.32770        0.68660        2.83360
C          0.50510        1.90000       -0.37370
C          0.89200        3.05120        0.60730
C          1.05000        2.51580       -1.69960
C         -1.03150        1.99060       -0.55270
C          0.29660       -1.40100       -1.02960
C          0.25740       -1.63230       -2.65830
C          1.55950       -1.95170       -3.44120
C         -0.64720       -2.85880       -2.92020
C         -0.35280       -0.46180       -3.42390
Pt         3.52620        0.00120        0.07490
Br         3.52620        1.94410        1.78770
C          3.52620       -1.61160       -1.34690
C          4.43740       -2.40940       -1.92320
C          5.67620        0.00120        0.07490
N          6.48620       -0.16920       -1.05750
C          6.18330       -0.19150       -2.52990
C          5.06090        0.52600       -3.07890
C          4.12200        1.43260       -2.33610
C          4.78460        0.49560       -4.46110
C          5.61070       -0.15740       -5.33800
C          5.33650       -0.09630       -6.81610
C          6.71590       -0.83680       -4.85180
C          7.02550       -0.87960       -3.47690
C          8.19800       -1.73660       -3.10420
C          7.72370       -0.06130       -0.54810
C          7.69470        0.08580        0.79740
N          6.43710        0.03130        1.29580
C          6.28390        0.08510        2.83750
C          5.09980        0.24750        3.71530
C          3.70650       -0.19430        3.46970
C          5.18260        0.62250        5.06490
C          6.34670        0.56730        5.75760
C          6.33630        0.92300        7.22570
C          7.41920       -0.02360        5.10580
C          7.37380       -0.31350        3.71790
C          8.45510       -1.27550        3.28850
H         -1.84960       -1.30890        1.06470
H         -2.03120        0.41500        1.53490
H         -1.84870       -0.74360        2.74990
H          0.21200       -2.60980        1.68620
H         -0.02660       -1.93990        3.32560
H          1.52540       -1.96340        2.57720
H         -0.34450        1.55740        2.73060
H          1.34250        1.04920        2.80730
H          0.13360        0.33370        3.86870
H          1.94280        3.35270        0.49580
H          0.66030        2.93670        1.65820
H          0.38130        3.99970        0.32540
H          2.10970        2.78140       -1.61810
H          0.57860        3.50940       -1.90000
H          0.85180        2.01700       -2.62760
H         -1.57030        1.92820        0.38380
H         -1.41040        1.27070       -1.30060
H         -1.34940        3.00120       -0.90070
H         -0.78030       -1.29300       -0.80940
H          0.59860       -2.36190       -0.56430
H          1.98260       -2.92560       -3.11860
H          2.27370       -1.10210       -3.39060
H          1.38640       -2.09820       -4.52660
H         -0.23470       -3.75910       -2.41520
H         -0.69970       -3.08850       -4.01050
H         -1.68200       -2.68490       -2.56440
H          0.36970        0.33460       -3.43020
H         -1.33830       -0.15250       -3.03500
H         -0.46670       -0.70060       -4.50520
H          2.57340       -2.00960       -1.36740
H          5.49640       -2.33040       -1.83550
H          4.09720       -3.27020       -2.49390
H          4.15900        1.44010       -1.24380
H          4.44530        2.45440       -2.55630
H          3.13670        1.48410       -2.84760
H          3.91190        1.00540       -4.85730
H          4.41790        0.49380       -7.03820
H          5.21190       -1.11160       -7.24050
H          6.18520        0.41480       -7.31880
H          7.35010       -1.34670       -5.56330
H          8.60150       -2.28470       -3.98660
H          7.87520       -2.53310       -2.38540
H          9.06200       -1.18530       -2.72230
H          8.62250       -0.01740       -1.10300
H          8.58120        0.22230        1.38020
H          3.86100       -0.48100        2.42150
H          3.06410        0.62340        3.88750
H          2.85690       -0.66780        3.06840
H          4.29130        0.87890        5.63430
H          5.36670        1.39210        7.52980
H          7.13450        1.65190        7.46780
H          6.44750        0.00290        7.83160
H          8.27600       -0.30220        5.70090
H          9.46230       -0.85530        3.42490
H          8.34210       -2.16730        3.95400
H          8.29530       -1.73390        2.29640
