61

P          1.05480       -0.00010       -0.08370
C          0.12150        0.99170        1.13690
C         -1.25580        1.28500        1.11770
C         -1.80800        2.14570        2.08330
C         -1.00190        2.72550        3.07990
C         -1.55830        3.65200        4.12280
C          0.36820        2.45540        3.08030
C          0.91030        1.61970        2.11850
C          0.66150        0.78830       -1.65950
C          1.04410        2.11410       -1.93160
C          0.75720        2.69640       -3.16810
C          0.06380        1.97270       -4.15340
C         -0.25740        2.59160       -5.48450
C         -0.32850        0.65550       -3.89040
C         -0.02550        0.06450       -2.65570
C          0.34000       -1.63690        0.25750
C         -1.01910       -1.82040       -0.06980
C         -1.61930       -3.07340       -0.03030
C         -0.87490       -4.19230        0.33980
C         -1.51100       -5.55420        0.30600
C          0.47680       -4.02790        0.69800
C          1.08760       -2.75750        0.64710
Pt         3.51480       -0.00010       -0.08370
Br         3.51480       -0.57630        2.44140
C          3.51480        0.47820       -2.17980
C          3.38510       -0.49110       -3.08220
N          5.61480       -0.00010       -0.08370
C          6.31130        0.36160       -1.21900
C          7.70650        0.33880       -1.27860
C          8.43320       -0.07440       -0.17710
C          7.75630       -0.44210        0.97320
C          6.35900       -0.38810        1.00860
H         -1.90790        0.90430        0.35470
H         -2.86610        2.37440        2.05120
H         -2.64680        3.81400        3.99160
H         -1.04660        4.63920        4.06830
H         -1.38260        3.22290        5.13350
H          1.01460        2.91190        3.82360
H          1.97370        1.48850        2.13640
H          1.58410        2.67860       -1.18190
H          1.07600        3.71200       -3.35980
H          0.12890        3.62950       -5.55760
H         -1.36020        2.61640       -5.62890
H          0.19610        1.98980       -6.30010
H         -0.86350        0.08440       -4.63610
H         -0.32970       -0.95690       -2.49050
H         -1.62370       -1.00900       -0.43050
H         -2.65810       -3.16750       -0.33040
H         -2.56680       -5.50560       -0.04480
H         -1.49740       -6.01480        1.31320
H         -0.95560       -6.20260       -0.40540
H          1.06440       -4.89250        0.97710
H          2.13930       -2.66500        0.87080
H          3.69740        1.49830       -2.50410
H          3.26220       -1.51800       -2.75750
H          3.43280       -0.26100       -4.14170
H          5.84210        0.69410       -2.11730
H          8.21770        0.63730       -2.18540
H          9.51420       -0.11340       -0.21720
H          8.31210       -0.78170        1.83960
H          5.93360       -0.71410        1.92590
