94

P          1.05430       -0.06260       -0.05600
C         -0.04310        0.88370       -1.20780
C         -1.31750        1.44430       -0.94870
C         -2.05590        2.06420       -1.95780
C         -1.54540        2.17640       -3.27430
O         -2.25770        2.71410       -4.28910
C         -3.61170        2.96720       -4.23950
C         -0.26440        1.70150       -3.52980
C          0.44100        1.03570       -2.53890
C          0.59640       -1.67990       -0.75080
C          0.96800       -2.04350       -2.05650
C          0.40030       -3.16570       -2.67160
C         -0.54850       -3.94900       -1.98590
O         -1.19730       -4.99450       -2.56090
C         -1.10350       -5.37290       -3.88370
C         -0.86510       -3.62440       -0.66550
C         -0.29450       -2.50950       -0.05050
C          0.35420        0.38720        1.56770
C         -1.01100        0.15590        1.81190
C         -1.65770        0.70980        2.90650
C         -0.94590        1.49250        3.82380
O         -1.57080        2.14050        4.84460
C         -2.94250        2.31570        4.94490
C          0.44120        1.64870        3.64780
C          1.08970        1.10740        2.51970
Pt         3.51430       -0.06260       -0.05600
Br         3.51430       -1.84560        1.82250
C          3.51430        1.41760       -1.61540
C          4.25310        1.47860       -2.72490
C          5.66430       -0.06260       -0.05600
N          6.56680        0.95550       -0.19490
C          6.33530        2.42110       -0.34440
C          7.64200        3.27720       -0.30940
C          7.32920        4.77560       -0.49060
C          6.34950        5.25340        0.58680
C          5.06500        4.41850        0.54290
C          5.38180        2.92970        0.74830
C          7.78460        0.37100       -0.04770
C          7.64570       -1.00130        0.04300
N          6.32830       -1.25960       -0.02030
C          5.64000       -2.49900       -0.49000
C          4.98380       -2.25900       -1.85070
C          5.60550       -3.10770       -2.92780
C          5.36910       -4.56900       -2.56520
C          6.14400       -4.92340       -1.27590
C          5.75970       -4.01590       -0.08850
H         -1.79920        1.42670       -0.01410
H         -3.03840        2.43900       -1.71610
H         -3.95590        3.33850       -5.22570
H         -3.84170        3.72780       -3.46690
H         -4.15470        2.02230       -4.01350
H          0.15310        1.79560       -4.52170
H          1.41540        0.68670       -2.81750
H          1.65260       -1.44110       -2.63040
H          0.67410       -3.39040       -3.69370
H         -1.79330       -6.22250       -4.06710
H         -0.06750       -5.69240       -4.11730
H         -1.40500       -4.53240       -4.54700
H         -1.59470       -4.21380       -0.12350
H         -0.60830       -2.28030        0.95240
H         -1.62500       -0.38600        1.10680
H         -2.72540        0.55790        2.99600
H         -3.17700        2.93970        5.83050
H         -3.46250        1.34060        5.04790
H         -3.32580        2.84570        4.04250
H          1.00520        2.24560        4.35290
H          2.14150        1.30640        2.36170
H          2.71730        2.14810       -1.52890
H          5.00170        0.75160       -2.98690
H          4.04390        2.27710       -3.43450
H          5.88900        2.60710       -1.33140
H          8.33920        2.96870       -1.11860
H          8.15400        3.14140        0.66850
H          6.88500        4.94670       -1.49600
H          8.26610        5.37290       -0.42590
H          6.10580        6.32630        0.42530
H          6.82110        5.15260        1.58880
H          4.56290        4.56010       -0.44090
H          4.37190        4.76110        1.33920
H          4.43180        2.35950        0.71750
H          5.84800        2.77420        1.74440
H          8.74010        0.88680       -0.05170
H          8.44600       -1.73080        0.03590
H          4.83540       -2.37360        0.06300
H          5.07050       -1.20870       -2.15480
H          3.88880       -2.47850       -1.78860
H          6.69260       -2.88680       -3.01620
H          5.10540       -2.85440       -3.88480
H          5.71330       -5.20900       -3.40190
H          4.27100       -4.73270       -2.44130
H          7.22610       -4.82850       -1.47090
H          5.91410       -5.98360       -1.01730
H          6.33130       -4.21780        0.84040
H          4.71700       -4.38600        0.12910
