61

P          1.06270       -0.00600       -0.07770
C          0.13590        1.53220        0.17100
C         -0.46250        1.86570        1.39770
C         -0.95660        3.16640        1.60730
C         -0.85430        4.13540        0.59680
Cl        -1.42980        5.77150        0.87050
C         -0.25650        3.81460       -0.62500
C          0.24240        2.52580       -0.82400
C          0.83110       -0.25020       -1.85320
C          1.93060       -0.29350       -2.72170
C          1.73590       -0.47180       -4.09520
C          0.44220       -0.60120       -4.61110
Cl         0.20140       -0.82080       -6.33480
C         -0.65880       -0.55140       -3.75110
C         -0.46620       -0.37710       -2.37730
C          0.49820       -1.36220        0.96720
C         -0.14080       -2.47490        0.39880
C         -0.63290       -3.49950        1.21300
C         -0.49250       -3.42050        2.60130
Cl        -1.13070       -4.69750        3.62150
C          0.15070       -2.31850        3.17460
C          0.64910       -1.29430        2.36060
Pt         3.52270       -0.00600       -0.07770
Br         3.52270       -2.53680       -0.62800
C          3.52270        2.09500        0.37920
C          3.61250        2.52670        1.63580
N          5.62270       -0.00600       -0.07770
C          5.86710       -1.19770        0.78160
C          6.10030       -0.44820       -1.39100
C          6.48000        1.14060        0.35710
C          7.64050        0.88650        1.17580
C          8.39360        1.90030        1.75860
C          8.04580        3.22410        1.55590
C          6.99980        3.52550        0.68990
C          6.25590        2.50420        0.07210
H         -0.50530        1.16500        2.21010
H         -1.38690        3.43480        2.55950
H         -0.15830        4.55590       -1.39620
H          0.74940        2.33360       -1.75910
H          2.93680       -0.18650       -2.34470
H          2.59120       -0.50650       -4.75770
H         -1.66300       -0.64520       -4.14550
H         -1.32810       -0.33610       -1.72250
H         -0.27300       -2.55130       -0.67070
H         -1.13200       -4.34880        0.76320
H          0.25640       -2.25190        4.25020
H          1.13420       -0.44280        2.82110
H          3.28100        2.80520       -0.40610
H          3.74930        1.82440        2.44880
H          3.51560        3.58760        1.84850
H          4.94890       -1.65450        1.14840
H          6.11990       -0.90440        1.82060
H          6.62830       -1.93680        0.42990
H          5.59790       -1.35900       -1.76150
H          7.19970       -0.64910       -1.38090
H          5.92090        0.34970       -2.14090
H          7.99440       -0.10680        1.41810
H          9.22790        1.65190        2.41130
H          8.60370        4.00520        2.05710
H          6.76020        4.56440        0.51260
H          5.49870        2.83490       -0.61710
