69

P          0.94150        0.00990        0.08050
C          0.13820        0.82830       -1.38610
C          0.92810        1.48530       -2.40870
C          2.42840        1.66770       -2.40590
C          0.29900        2.09990       -3.50180
C         -1.08210        2.13000       -3.60020
C         -1.85920        1.57360       -2.59230
C         -1.26050        0.94900       -1.49340
C          0.49700       -1.74910       -0.30380
C          1.23010       -2.83140        0.28390
C          2.46120       -2.66260        1.13000
C          0.77350       -4.15560        0.13100
C         -0.40100       -4.44120       -0.55170
C         -1.14320       -3.40930       -1.09370
C         -0.70520       -2.09390       -0.97710
C          0.14470        0.90920        1.45740
C         -0.19450        2.30700        1.53160
C          0.08790        3.33800        0.47750
C         -0.84200        2.80130        2.68130
C         -1.14310        1.97070        3.75540
C         -0.81120        0.62310        3.70210
C         -0.18460        0.10130        2.56980
Pt         3.40150        0.00990        0.08050
Br         3.40150       -1.39560       -2.09500
C          3.40150        1.17660        1.88640
C          4.21130        1.64610        2.85450
N          5.50150        0.00990        0.08050
C          6.34080       -0.80960       -0.60510
N          7.64210       -0.59400       -0.26300
C          8.82760       -1.34580       -0.62080
C          8.76460       -2.42530       -1.52160
C          9.90490       -3.19230       -1.79060
C         11.11850       -2.89800       -1.16470
C         11.20150       -1.82850       -0.27750
C         10.07220       -1.05700       -0.00840
C          7.61950        0.46170        0.56510
C          6.32900        0.83040        0.75330
H          2.91600        1.30760       -1.49790
H          2.66530        2.75530       -2.45480
H          2.88640        1.19590       -3.30280
H          0.88300        2.58660       -4.27850
H         -1.55170        2.61660       -4.44400
H         -2.93460        1.63530       -2.65950
H         -1.90060        0.55630       -0.71940
H          2.74520       -1.61800        1.30320
H          3.31310       -3.19220        0.65310
H          2.27920       -3.10770        2.13130
H          1.32230       -4.97780        0.57520
H         -0.75930       -5.45900       -0.62840
H         -2.08240       -3.62110       -1.59290
H         -1.37710       -1.39610       -1.40290
H          0.69630        2.98230       -0.35500
H          0.65730        4.18040        0.92140
H         -0.87940        3.73500        0.08690
H         -1.11020        3.84960        2.75170
H         -1.63200        2.37520        4.63230
H         -1.04030       -0.01950        4.54280
H          0.05490       -0.95530        2.56230
H          2.39510        1.43230        2.13680
H          5.25320        1.46400        3.01800
H          3.76260        2.21740        3.66430
H          6.01170       -1.60560       -1.25200
H          7.83900       -2.69100       -2.00940
H          9.84560       -4.02610       -2.47580
H         11.99530       -3.50090       -1.36000
H         12.13860       -1.60060        0.21660
H         10.19080       -0.25550        0.70340
H          8.46550        0.95500        1.01910
H          6.07650        1.69930        1.29110
