77

P          0.96680       -0.01980        0.09220
C          0.00790       -0.44620        1.59350
C         -0.36790       -1.78720        1.81040
C         -0.90360       -2.20860        3.03090
C         -1.28790       -3.64650        3.22570
C         -1.04490       -1.28800        4.07480
C         -0.65180        0.04020        3.89410
C         -0.12500        0.46070        2.66760
C          0.55400        1.74170       -0.02760
C          1.55370        2.71470       -0.10010
C          1.21940        4.08210       -0.09750
C          2.28460        5.13390       -0.13470
C         -0.12760        4.46990       -0.03690
C         -1.13160        3.50440        0.01110
C         -0.79570        2.14880        0.01440
C          0.33120       -1.28600       -1.05070
C         -1.06620       -1.39640       -1.22810
C         -1.62480       -2.47840       -1.92660
C         -3.11690       -2.64400       -2.04290
C         -0.77590       -3.44400       -2.47920
C          0.61060       -3.33030       -2.33200
C          1.16540       -2.25990       -1.61360
Pt         3.42680       -0.01980        0.09220
Br         3.42700        0.31000       -2.36870
C          3.24530       -0.28280        2.19800
C          4.20140       -0.58590        3.09210
C          5.57680       -0.01980        0.09220
N          6.40550       -0.63460       -0.81660
C          6.14960       -1.61970       -1.89150
C          6.61630       -1.11530       -3.26350
C          6.90950       -2.93980       -1.57400
C          7.66190       -0.36610       -0.40670
C          7.61650        0.38990        0.71790
N          6.33010        0.64040        1.05150
C          5.98480        1.68580        2.08710
C          7.06820        2.79440        2.14850
C          4.68220        2.47110        1.79420
H         -0.20940       -2.53630        1.05070
H         -1.09520       -4.24800        2.31020
H         -2.36980       -3.70960        3.45940
H         -0.70080       -4.09000        4.05710
H         -1.43180       -1.60670        5.03490
H         -0.72550        0.73800        4.71880
H          0.22660        1.48050        2.58540
H          2.58530        2.40710       -0.13680
H          3.29580        4.68400       -0.20850
H          2.23490        5.73690        0.79710
H          2.12790        5.80050       -1.00830
H         -0.39910        5.51940       -0.02310
H         -2.17080        3.80850        0.06280
H         -1.59520        1.42470        0.08150
H         -1.72840       -0.67760       -0.76570
H         -3.66560       -1.80300       -1.56750
H         -3.42530       -3.58240       -1.53110
H         -3.41860       -2.70600       -3.10900
H         -1.19220       -4.29500       -3.00670
H          1.25190       -4.09730       -2.74440
H          2.23380       -2.22700       -1.45850
H          2.26750       -0.23920        2.64170
H          5.22360       -0.76010        2.80680
H          3.92760       -0.72890        4.13090
H          5.07350       -1.87970       -1.93390
H          7.67510       -0.77990       -3.22570
H          5.98200       -0.27960       -3.60930
H          6.54530       -1.93530       -4.01240
H          8.01300       -2.78800       -1.55540
H          6.71330       -3.71290       -2.34360
H          6.60880       -3.34430       -0.58470
H          8.57220       -0.72290       -0.86860
H          8.49760        0.74810        1.22580
H          5.98420        1.25850        3.10950
H          7.16220        3.30130        1.16270
H          8.05530        2.41080        2.46540
H          6.80470        3.55890        2.91250
H          4.69260        2.86200        0.75960
H          4.57800        3.32760        2.49680
H          3.74620        1.94610        1.94410
