50

P          1.02220       -0.01950       -0.09550
C          0.46740        1.21870       -1.32800
C         -0.84100        1.46610       -1.78900
C         -1.06170        2.40780       -2.81360
C          0.00580        3.10390       -3.39540
Cl        -0.26380        4.26320       -4.68510
C          1.30270        2.83940       -2.97180
C          1.52130        1.90250       -1.96760
C          0.60220       -1.54360       -0.96910
C          1.09760       -1.79930       -2.26400
C          0.94540       -3.06990       -2.83420
C          0.27130       -4.07750       -2.13540
Cl         0.14790       -5.68950       -2.81910
C         -0.27540       -3.80870       -0.87680
C         -0.11320       -2.54690       -0.29380
C          0.14820        0.47650        1.40570
C         -1.25890        0.42270        1.40250
C         -1.98500        0.59200        2.58230
C         -1.31640        0.78760        3.78490
Cl        -2.23910        0.91720        5.27310
C          0.08480        0.83430        3.80720
C          0.81900        0.68160        2.61740
Pt         3.48220       -0.01950       -0.09550
Br         3.48220        2.48570        0.56170
C          3.48220       -2.09920       -0.64110
C          4.42900       -2.89320       -1.15650
C          5.63220       -0.01950       -0.09550
N          6.45930       -1.08800        0.01730
H          6.25280       -2.08490        0.20740
C          7.71060       -0.61340       -0.01490
Cl         9.14700       -1.61160        0.11180
C          7.65310        0.74890       -0.12900
Cl         9.01920        1.84110       -0.24130
N          6.36160        1.12160       -0.13510
H         -1.69180        0.93450       -1.41200
H         -2.06590        2.58460       -3.17200
H          2.14900        3.34020       -3.43100
H          2.54510        1.68840       -1.71710
H          1.67380       -1.05000       -2.79150
H          1.38770       -3.28330       -3.79920
H         -0.79120       -4.58980       -0.33140
H         -0.49380       -2.37610        0.70410
H         -1.81440        0.18000        0.51920
H         -3.06630        0.52110        2.55310
H          0.60010        0.95220        4.75060
H          1.89970        0.66000        2.66000
H          2.58450       -2.65730       -0.55060
H          5.38980       -2.56510       -1.50200
H          4.19490       -3.93340       -1.36970
H          6.02270        2.10370       -0.21780
