70

P          0.98850        0.08120       -0.05720
C         -0.09640       -0.15040        1.41330
C         -1.14900        0.71870        1.75060
C         -1.79700        0.61880        2.99290
C         -2.89950        1.56340        3.34950
C         -1.38600       -0.35130        3.91780
C         -0.37390       -1.24650        3.58310
C          0.24830       -1.16520        2.33490
C          0.58740        1.81770       -0.36050
C          0.95880        2.77400        0.59900
C          0.47690        4.09120        0.51930
C          0.79990        5.09140        1.58900
C         -0.35700        4.45500       -0.54730
C         -0.70740        3.51390       -1.52050
C         -0.24170        2.19330       -1.42840
C          0.33440       -1.31220       -1.02700
C         -1.05880       -1.40770       -1.22970
C         -1.62220       -2.53480       -1.86180
C         -3.11060       -2.66530       -2.03810
C         -0.78300       -3.55980       -2.30680
C          0.59900       -3.46560       -2.12000
C          1.15280       -2.34980       -1.47920
Pt         3.44850        0.08120       -0.05720
Br         3.44850        0.43400       -2.62300
C          3.44850       -0.21160        2.07280
C          4.13250       -0.38130        3.21910
P          5.90850        0.08120       -0.05720
C          7.12870        1.11560       -0.95460
C          6.69100        0.04500        1.55630
C          6.30480       -1.35120       -1.10750
C          5.31460       -2.19170       -1.59660
C          5.63260       -3.37710       -2.27270
C          6.96800       -3.73340       -2.46870
C          7.98160       -2.91410       -1.98530
C          7.65930       -1.74440       -1.29670
H         -1.45720        1.49990        1.07490
H         -3.12300        2.25600        2.51070
H         -2.60580        2.16470        4.23520
H         -3.81750        0.98510        3.58200
H         -1.84910       -0.41040        4.89600
H         -0.04810       -1.98520        4.30840
H          1.05810       -1.85500        2.12740
H          1.56540        2.47300        1.44380
H          1.46500        4.65750        2.36570
H         -0.14160        5.41330        2.08730
H          1.29640        5.97800        1.14680
H         -0.75460        5.46270       -0.61060
H         -1.37110        3.80040       -2.32640
H         -0.57130        1.46590       -2.15710
H         -1.70840       -0.62180       -0.86490
H         -3.65200       -1.77290       -1.65880
H         -3.47260       -3.55380       -1.47630
H         -3.35890       -2.79910       -3.11230
H         -1.20290       -4.43670       -2.78640
H          1.23740       -4.27400       -2.45420
H          2.20820       -2.31840       -1.30670
H          2.42490       -0.15570        2.34150
H          5.17100       -0.44220        3.41950
H          3.55530       -0.46110        4.14090
H          7.00910        2.13880       -0.53000
H          6.89460        1.18470       -2.03450
H          8.18840        0.87020       -0.77130
H          6.36290        0.92720        2.14720
H          7.79250        0.05380        1.47120
H          6.45430       -0.94810        1.97820
H          4.28440       -1.95330       -1.40470
H          4.84220       -4.02770       -2.61780
H          7.21970       -4.65450       -2.97730
H          9.02030       -3.19590       -2.10780
H          8.48620       -1.18270       -0.89760
