56

P          1.05990        0.02470        0.07620
C          0.11440        1.56110       -0.08270
C         -0.48040        2.18980        1.02160
C         -0.99280        3.49180        0.89440
C         -0.90960        4.17260       -0.32660
Cl        -1.50270        5.81690       -0.47640
C         -0.31120        3.55710       -1.42520
C          0.20710        2.27160       -1.29920
C          0.86150       -0.65050       -1.59830
C          1.97780       -0.93040       -2.39940
C          1.81400       -1.42800       -3.69580
C          0.53220       -1.64440       -4.20560
Cl         0.32710       -2.26620       -5.83560
C         -0.58870       -1.37060       -3.42100
C         -0.42420       -0.87010       -2.12630
C          0.35300       -0.99310        1.38440
C         -1.02570       -1.26150        1.37920
C         -1.60330       -2.03350        2.38780
C         -0.80970       -2.54200        3.41770
Cl        -1.54190       -3.50850        4.68530
C          0.56360       -2.27120        3.43760
C          1.14430       -1.49580        2.42530
Pt         3.51990        0.02470        0.07620
Br         3.51990       -2.56340        0.17560
C          3.51990        2.17310       -0.00630
C          4.45340        2.97220       -0.53520
N          5.61990        0.02470        0.07620
C          6.26310       -1.05580       -0.46110
C          7.66510       -1.10110       -0.57040
O          8.31470       -2.06720       -1.27060
C          7.71620       -2.93060       -2.17030
C          8.41210       -0.07890        0.00700
C          7.76330        0.99390        0.60550
C          6.36790        1.04790        0.59450
H         -0.50050        1.70570        1.98810
H         -1.42490        3.98790        1.75310
H         -0.21300        4.08300       -2.36790
H          0.71920        1.85430       -2.15640
H          2.97870       -0.75490       -2.03320
H          2.68410       -1.63960       -4.30110
H         -1.58400       -1.52060       -3.81640
H         -1.30770       -0.64590       -1.54940
H         -1.66480       -0.87010        0.60360
H         -2.66810       -2.23080        2.36880
H          1.17910       -2.65780        4.23900
H          2.20450       -1.28440        2.46030
H          2.60980        2.66210        0.32020
H          5.35240        2.59400       -0.99950
H          4.29610        4.04540       -0.55480
H          5.69760       -1.83160       -0.93150
H          8.49820       -3.51110       -2.70040
H          7.15260       -2.35000       -2.93710
H          7.03010       -3.62980       -1.65060
H          9.49360       -0.10140       -0.03140
H          8.33600        1.78790        1.06780
H          5.90410        1.87730        1.10010
