97

P          1.06640       -0.06270       -0.04080
C          0.23970       -1.73990       -0.61240
C         -1.17660       -2.05500       -0.68880
C         -2.29030       -1.06780       -0.56720
C         -1.63250       -3.40160       -0.87280
C         -0.75650       -4.47310       -1.01270
C         -1.20840       -5.91640       -1.13660
C          0.57820       -4.20800       -1.04050
C          1.09320       -2.91100       -0.85490
C          2.57390       -2.93910       -0.85000
C          0.21920        0.06900        1.73310
C         -0.05790       -1.07420        2.63460
C          0.13370       -2.55110        2.40360
C         -0.49740       -0.87360        3.96070
C         -0.73260        0.37380        4.48130
C         -1.09870        0.56810        5.93360
C         -0.60100        1.46890        3.65090
C         -0.18720        1.34430        2.30230
C         -0.13550        2.66980        1.61730
C          0.75280        1.23950       -1.41930
C         -0.10290        1.13920       -2.60020
C         -0.74710       -0.07410       -3.20190
C         -0.43350        2.29860       -3.34900
C          0.06580        3.55370       -3.03920
C         -0.34860        4.78910       -3.80360
C          0.97610        3.65890       -2.01140
C          1.33570        2.55160       -1.22310
C          2.36620        2.90510       -0.18650
Pt         3.52640       -0.06270       -0.04080
Br         3.52640       -0.65170       -2.56290
C          3.52640        0.42630        2.05290
C          2.82760       -0.26860        2.92060
C          5.67640       -0.06270       -0.04080
N          6.43980       -0.88470       -0.71880
C          6.03590       -2.13590       -1.36390
C          6.62780       -2.26250       -2.77280
C          6.42150       -3.36020       -0.51320
C          7.84160       -0.63120       -0.46740
C          7.84660        0.73120        0.14830
N          6.52530        0.83380        0.71320
C          6.17540        2.00310        1.51020
C          6.68070        1.72610        2.93910
C          6.75190        3.34050        1.01320
H         -1.93390       -0.02840       -0.55770
H         -2.90100       -1.29420        0.33420
H         -2.95100       -1.20550       -1.45730
H         -2.68990       -3.62670       -0.88310
H         -2.30960       -6.02130       -1.10240
H         -0.78480       -6.51010       -0.29430
H         -0.83470       -6.36730       -2.08270
H          1.25290       -5.05440       -1.16920
H          3.01550       -3.89690       -0.50310
H          3.01380       -2.14990       -0.22500
H          2.84750       -2.99150       -1.92160
H          0.46540       -2.88000        1.44490
H         -0.83380       -3.07930        2.59520
H          0.88280       -2.95640        3.11520
H         -0.61590       -1.72700        4.62440
H         -1.11790       -0.39950        6.49020
H         -2.08110        1.05940        6.03150
H         -0.32250        1.20430        6.42500
H         -0.84310        2.42660        4.07900
H         -0.81570        3.40100        2.11190
H         -0.53190        2.62240        0.59140
H          0.84090        3.10680        1.83410
H         -0.43050       -1.02240       -2.79660
H         -0.43410       -0.13660       -4.26770
H         -1.85500        0.02880       -3.19270
H         -1.11080        2.23070       -4.19610
H         -1.08380        4.56350       -4.60580
H          0.53640        5.27740       -4.26670
H         -0.82460        5.51930       -3.11030
H          1.39610        4.63990       -1.80230
H          2.07950        3.82620        0.36170
H          3.31300        3.15880       -0.70170
H          2.56330        2.09880        0.51840
H          4.19180        1.02360        2.61710
H          2.28060       -1.09490        2.55190
H          2.89290       -0.07680        3.99140
H          4.96470       -2.22930       -1.38590
H          7.73450       -2.33490       -2.72550
H          6.34930       -1.38640       -3.38890
H          6.25020       -3.18520       -3.26170
H          7.51630       -3.45920       -0.38410
H          6.04920       -4.29050       -0.99910
H          5.94110       -3.29430        0.48950
H          8.49160       -0.66030       -1.36680
H          8.19200       -1.36990        0.28630
H          7.90790        1.48630       -0.67170
H          8.68430        0.87790        0.86010
H          5.10880        2.22460        1.40550
H          7.79140        1.65280        2.93900
H          6.30310        0.74620        3.30500
H          6.37870        2.52090        3.64870
H          7.85950        3.35120        1.00270
H          6.41110        4.14670        1.70280
H          6.35770        3.58120        0.00370
