68

P          1.04180        0.06400        0.06440
C         -0.05870        0.49120        1.46580
C         -1.14040        1.38170        1.41760
C         -1.85840        1.67610        2.59200
C         -1.48580        1.11350        3.82010
F         -2.15780        1.43080        4.95520
C         -0.41400        0.22750        3.87910
C          0.27330       -0.10120        2.71100
C          0.71440        1.35000       -1.16090
C          1.14630        2.66200       -0.90680
C          0.86500        3.68870       -1.81590
C          0.15110        3.41260       -2.98410
F         -0.12540        4.41110       -3.86080
C         -0.28010        2.10970       -3.24710
C         -0.00180        1.07660       -2.33640
C          0.36930       -1.60630       -0.03520
C         -1.03360       -1.74590       -0.15250
C         -1.64330       -2.99320       -0.05110
C         -0.86000       -4.12340        0.17580
F         -1.46000       -5.33660        0.31130
C          0.53190       -4.00930        0.26160
C          1.15540       -2.75440        0.16730
Pt         3.50180        0.06400        0.06440
Br         3.42250       -0.92350       -2.20380
C          3.76090        0.85570        2.00620
C          2.86190        1.45840        2.76870
P          5.96180        0.06400        0.06440
C          7.06340       -0.66900       -1.19100
C          6.54510        1.77520        0.00490
C          5.65510        2.84960       -0.12880
C          6.15360        4.16050       -0.21130
C          7.52880        4.39990       -0.17690
C          8.41960        3.33260       -0.05780
C          7.92930        2.03110        0.03840
C          6.40380       -0.94050        1.51140
C          5.98550       -2.28300        1.54890
C          6.36620       -3.12410        2.59900
C          7.17960       -2.63830        3.62350
C          7.60780       -1.30780        3.60070
C          7.22660       -0.45780        2.54980
H         -1.43220        1.84480        0.48850
H         -2.69780        2.35570        2.55910
H         -0.10550       -0.19430        4.83040
H          1.12060       -0.77500        2.79210
H          1.68860        2.89360        0.00020
H          1.19440        4.69920       -1.60950
H         -0.83820        1.90130       -4.15100
H         -0.35370        0.07680       -2.54930
H         -1.66160       -0.87510       -0.28560
H         -2.71700       -3.07260       -0.10900
H          1.12780       -4.89170        0.45040
H          2.22080       -2.66670        0.28850
H          4.75250        0.83880        2.42770
H          1.88140        1.67550        2.41510
H          3.14450        1.83180        3.74670
H          6.84310       -0.20780       -2.17790
H          6.78260       -1.74350       -1.27690
H          8.13750       -0.61550       -0.95480
H          4.59050        2.67720       -0.17300
H          5.46810        4.99310       -0.31110
H          7.91260        5.41140       -0.24470
H          9.48780        3.51320       -0.04210
H          8.64810        1.22630        0.12270
H          5.36880       -2.68260        0.75380
H          6.04240       -4.15730        2.61210
H          7.48490       -3.29780        4.42870
H          8.24990       -0.94400        4.39310
H          7.58510        0.56060        2.54170
