39

P          0.90210       -0.00130       -0.02020
Cl        -1.05950       -0.57040       -0.37800
Cl         0.87040       -0.94760        1.82550
Cl         0.44670        2.00610       -0.30680
Pt         3.36210       -0.00130       -0.02020
Br         3.30340        2.18420        1.15640
C          3.23300       -1.96930       -0.72550
C          3.67740       -2.44330       -1.88720
P          5.82210       -0.00130       -0.02020
O          7.24310        0.86590        0.36390
C          6.81620        1.85080        1.29670
C          7.75270        3.04170        1.39650
O          6.04790       -1.11190        1.26790
C          5.95650       -2.45160        0.86560
C          6.72930       -3.30680        1.86180
C          6.29830       -0.32090       -1.73030
C          5.50450        0.19300       -2.76560
C          5.90690        0.07130       -4.09720
C          7.12310       -0.53100       -4.41700
C          7.94190       -1.02740       -3.37320
C          7.53970       -0.90920       -2.04140
H          2.76260       -2.67450       -0.04670
H          4.15190       -1.83020       -2.62270
H          3.56370       -3.49940       -2.11080
H          6.69760        1.39260        2.30500
H          5.87400        2.34120        0.98530
H          8.76250        2.72600        1.71900
H          7.34260        3.75480        2.14980
H          7.80030        3.57210        0.42180
H          6.36970       -2.64170       -0.14800
H          4.90580       -2.77570        0.94360
H          7.81220       -3.06500        1.82630
H          6.58840       -4.38290        1.62640
H          6.35350       -3.12060        2.89250
H          4.56640        0.69120       -2.54160
H          5.28860        0.45820       -4.89370
H          7.45700       -0.60940       -5.43140
H          8.90050       -1.47080       -3.60830
H          8.18600       -1.25160       -1.25130
