63

P          1.00940        0.01600        0.09830
C          0.32520        0.71390       -1.43140
C         -1.03030        0.68430       -1.84770
C         -1.37740        1.16460       -3.12220
C         -0.39910        1.65630       -3.98940
F         -0.73830        2.09420       -5.23060
C          0.93400        1.67860       -3.59830
C          1.28510        1.20270       -2.32670
C          0.59420       -1.72010       -0.14160
C          1.01360       -2.43120       -1.27640
C          0.71620       -3.79360       -1.40050
C         -0.01110       -4.44690       -0.39990
F         -0.28750       -5.76930       -0.51360
C         -0.45050       -3.73730        0.72080
C         -0.15100       -2.37820        0.84840
C          0.24080        1.01880        1.40050
C         -1.16340        1.02110        1.51020
C         -1.80730        1.62390        2.58890
C         -1.05610        2.22600        3.59500
F         -1.68350        2.77660        4.66270
C          0.33990        2.22530        3.51420
C          0.98910        1.62120        2.42580
Pt         3.46940        0.01600        0.09830
Br         3.33350        2.50060        0.18630
C          3.53060       -2.07470        0.14010
C          3.14120       -2.76970        1.23090
P          5.92940        0.01600        0.09830
C          7.09920        1.03730        1.06920
C          6.44290       -1.68910        0.49390
C          6.51420        0.69910       -1.55600
C          6.07210        2.13410       -1.86160
C          8.06800        0.63000       -1.66440
C          5.96610       -0.24060       -2.64500
H         -1.80740        0.26700       -1.24630
H         -2.40730        1.13380       -3.44600
H          1.70300        2.02690       -4.26810
H          2.33390        1.19680       -2.07020
H          1.58830       -1.93900       -2.05170
H          1.05890       -4.34530       -2.26620
H         -1.01340       -4.23980        1.49620
H         -0.48440       -1.84640        1.73070
H         -1.78360        0.51210        0.80210
H         -2.88720        1.58910        2.65700
H          0.91850        2.66590        4.31440
H          2.06540        1.58060        2.42510
H          4.04260       -2.62880       -0.64690
H          2.79540       -2.19300        2.09880
H          3.28190       -3.81330        1.26740
H          6.85670        0.83310        2.13590
H          6.94260        2.12120        0.92050
H          8.15560        0.73220        0.96340
H          6.07740       -1.97180        1.50160
H          7.54580       -1.76600        0.46590
H          6.07560       -2.39960       -0.26640
H          6.45570        2.85350       -1.11230
H          4.97440        2.19760       -1.92910
H          6.47420        2.44600       -2.85100
H          8.57990        1.36210       -1.00890
H          8.41680        0.88280       -2.68670
H          8.44060       -0.39000       -1.42060
H          4.85750       -0.24430       -2.64690
H          6.32260       -1.28170       -2.47730
H          6.32480        0.07030       -3.65120
