62

P          1.07590        0.05660       -0.03200
C          0.26210        0.20400       -1.63690
C         -1.11030        0.11890       -1.88370
C         -1.57910        0.20930       -3.20850
C         -0.67800        0.38220       -4.27120
Cl        -1.25460        0.46340       -5.93100
C          0.68200        0.48470       -4.02230
C          1.14880        0.40110       -2.70850
C          0.71500       -1.74400        0.09660
C          0.38720       -2.60680       -0.97690
C          0.05070       -3.94570       -0.73700
C          0.01240       -4.44480        0.56750
Cl        -0.44780       -6.11080        0.87270
C          0.33790       -3.61200        1.63370
C          0.69810       -2.28620        1.39730
C          0.39180        1.39050        0.99770
C          0.18280        1.16420        2.37330
C         -0.27890        2.17690        3.21070
C         -0.53760        3.44380        2.69290
Cl        -1.09890        4.71750        3.76090
C         -0.33350        3.69110        1.33010
C          0.12910        2.67050        0.48290
Pt         3.53590        0.05660       -0.03200
Br         3.53590       -1.90560       -1.72260
C          3.53590        1.68550        1.37130
C          4.37780        2.12300        2.30980
P          5.99590        0.05660       -0.03200
N          7.01630       -1.38110       -0.30120
C          8.45420       -1.18750       -0.30190
C          8.77330        0.28620       -0.22230
C         10.30500        0.44690       -0.25390
C          8.03380        0.99480       -1.43370
N          6.56100        0.68490       -1.57020
N          6.82370        0.67500        1.37170
C          8.26440        0.83450        1.14340
H         -1.80340       -0.02540       -1.06970
H         -2.63800        0.13310       -3.41170
H          1.39370        0.61360       -4.83180
H          2.21750        0.48180       -2.54520
H          0.38920       -2.27280       -2.00160
H         -0.19670       -4.59520       -1.56580
H          0.30570       -3.98500        2.65190
H          0.93910       -1.69100        2.25530
H          0.38440        0.21700        2.82930
H         -0.42360        1.97480        4.26620
H         -0.52460        4.67740        0.93100
H          0.29870        2.88590       -0.56140
H          2.63570        2.26660        1.35120
H          5.28710        1.67390        2.60120
H          4.09530        2.98730        2.90410
H          6.69660       -1.91790       -1.14200
H          8.88290       -1.63890       -1.22420
H          8.87940       -1.74890        0.56330
H         10.72980        0.02600       -1.18870
H         10.76320       -0.11320        0.59750
H         10.59890        1.51020       -0.15760
H          8.54150        0.69660       -2.37730
H          8.17510        2.08990       -1.32180
H          6.38960       -0.01020       -2.33060
H          6.67060       -0.03790        2.12560
H          8.80840        0.32880        1.97820
H          8.50740        1.91250        1.22560
