52

P          0.94300       -0.06970        0.04340
C         -0.06580        1.48270        0.74840
C         -1.61330        1.41200        0.74380
C          0.27460        1.73840        2.25090
C          0.30250        2.78840        0.01110
C          0.63860        0.02770       -1.89890
C          1.38040        1.20740       -2.58480
C          1.12690       -1.18040       -2.74120
C         -0.86590        0.09470       -2.22240
C          0.24220       -1.30860        1.31550
C          0.25170       -2.89240        1.26630
C          1.59740       -3.49390        1.67390
C         -0.78010       -3.42780        2.30000
C         -0.20710       -3.42980       -0.09420
Pt         3.40300       -0.06970        0.04340
Br         3.40300       -2.40730       -1.07200
C          3.40300        1.87070        0.96930
C          3.83080        3.01320        0.43470
C          5.55300       -0.06970        0.04340
O          6.77110       -0.06970        0.04340
H         -2.03570        0.60990        1.38030
H         -2.10080        1.35960       -0.22840
H         -2.02320        2.36310        1.16820
H          0.01070        0.90190        2.91620
H         -0.30760        2.60870        2.63900
H          1.29000        2.03620        2.44680
H         -0.25040        2.89030       -0.93460
H          1.38070        2.88120       -0.16960
H          0.01130        3.69520        0.58410
H          2.46910        1.15190       -2.37340
H          1.03970        2.20750       -2.33850
H          1.23970        1.16930       -3.68910
H          2.21760       -1.18890       -2.86750
H          0.81470       -1.08230       -3.80520
H          0.70180       -2.14550       -2.46130
H         -1.26490        1.09340       -2.02090
H         -1.42090       -0.70840       -1.68490
H         -1.07300       -0.02560       -3.30510
H         -0.83520       -1.09680        1.27100
H          0.61290       -1.03490        2.32040
H          1.82930       -3.26870        2.73230
H          2.42520       -3.08160        1.11550
H          1.59260       -4.59790        1.52910
H         -0.50680       -3.11980        3.33030
H         -0.81150       -4.54030        2.28280
H         -1.80800       -3.06440        2.08580
H          0.59590       -3.27310       -0.80770
H         -1.15680       -2.95760       -0.42650
H         -0.36160       -4.53120       -0.07120
H          3.22100        1.86910        2.02770
H          4.15190        3.08440       -0.59320
H          3.87030        3.89640        1.07320
