69

P          0.97900       -0.09680        0.01380
C          0.16740        0.73100        1.56190
C         -1.37540        0.78200        1.60660
C          0.63070       -0.00110        2.84450
C          0.67820        2.17960        1.75700
C          0.57260        1.06070       -1.56600
C          1.12960        2.51220       -1.63700
C          1.12500        0.49000       -2.90340
C         -0.95040        1.20990       -1.77060
C          0.27700       -1.86580        0.16940
C          0.28260       -3.05130       -0.91970
C          1.67870       -3.56660       -1.25470
C         -0.51190       -4.24380       -0.33400
C         -0.40170       -2.73500       -2.25990
Pt         3.43900       -0.09680        0.01380
Br         3.74030        2.37930       -0.12450
C          3.70790       -2.10680        0.49600
C          3.84780       -2.67440        1.69240
N          5.53900       -0.09680        0.01380
C          6.41390       -0.91540        0.65330
N          7.70750       -0.49900        0.49570
C          8.87090       -0.90600        1.23280
C          8.74760       -1.56970        2.47830
C          9.88200       -1.86560        3.24700
C         11.15280       -1.52170        2.77870
C         11.29050       -0.88440        1.54730
C         10.16170       -0.57110        0.78460
C          7.64350        0.53400       -0.36390
C          6.32060        0.80830       -0.62240
H         -1.83550       -0.21870        1.57720
H         -1.82100        1.41020        0.83500
H         -1.70500        1.27340        2.55050
H          0.28460       -1.04810        2.88330
H          0.20610        0.49910        3.74840
H          1.73660        0.03430        2.95430
H          0.23170        2.87440        1.04080
H          1.78380        2.22210        1.74540
H          0.36940        2.60270        2.73810
H          2.17250        2.52610       -1.97080
H          0.95730        3.17380       -0.79130
H          0.68440        3.06790       -2.49140
H          2.21790        0.30040       -2.86570
H          0.95250        1.20310       -3.74650
H          0.58080       -0.34160       -3.29570
H         -1.38840        1.91110       -1.05190
H         -1.46630        0.22920       -1.76590
H         -1.17710        1.69760       -2.74710
H         -0.80470       -1.69800        0.33260
H          0.69550       -2.28830        1.10230
H          2.14770       -3.98410       -0.34340
H          2.26480       -2.74650       -1.72370
H          1.64420       -4.39570       -1.99540
H         -0.06800       -4.59240        0.61860
H         -0.50520       -5.10760       -1.04110
H         -1.57370       -3.96560       -0.16370
H          0.27070       -2.18160       -2.89030
H         -1.39430       -2.25600       -2.14490
H         -0.52660       -3.65480       -2.87470
H          3.90560       -2.73620       -0.35760
H          3.79670       -2.11370        2.61210
H          4.09140       -3.73830        1.72130
H          6.13030       -1.69500        1.33570
H          7.77740       -1.82110        2.89610
H          9.77680       -2.34470        4.21590
H         12.02660       -1.73630        3.38020
H         12.27590       -0.60470        1.19430
H         10.30410       -0.04780       -0.14690
H          8.47860        1.09790       -0.74490
H          5.97690        1.59060       -1.29290
