93

P          1.04090        0.05360        0.07380
C          0.55480       -0.02770       -1.70660
C          0.14630        1.14170       -2.38010
C         -0.25710        1.09870       -3.72170
C         -0.25440       -0.10800       -4.42090
C          0.15190       -1.27250       -3.78180
C          0.54600       -1.23330       -2.44600
C          0.58800       -1.42250        1.05150
C         -0.14300       -2.48150        0.46750
C         -0.41770       -3.65040        1.17240
C         -0.00100       -3.77750        2.49180
C          0.67170       -2.72040        3.11250
C          0.96370       -1.54480        2.40010
C         -0.12720        1.27130        0.81020
C         -1.60040        1.12160        0.74540
C         -2.23540        0.15240        1.51820
C         -3.62490        0.08750        1.54470
C         -4.38660        0.99370        0.79980
C         -3.75740        1.97180        0.02650
C         -2.36700        2.04240        0.00120
Pt         3.50090        0.05360        0.07380
Br         3.41180       -1.78200       -1.65850
C          3.54020        1.65090        1.50050
C          2.65420        2.64510        1.71720
C          5.65090        0.05360        0.07380
N          6.38310       -1.04530       -0.13860
C          6.01170       -2.50210       -0.13000
C          6.85000       -3.57480       -0.70460
C          8.22060       -3.53880       -1.36440
C          6.40600       -4.92390       -0.71010
C          5.19960       -5.31640       -0.17380
C          4.71330       -6.74060       -0.24440
C          4.43580       -4.37490        0.46090
C          4.81970       -3.02080        0.53980
C          3.83590       -2.25740        1.36170
C          7.76600       -0.64280       -0.06120
C          7.73980        0.83340       -0.22800
N          6.48340        1.21480        0.33830
C          6.18950        2.62700        0.53060
C          5.08900        3.33680       -0.07810
C          4.19900        2.73680       -1.16470
C          4.79830        4.66440        0.35590
C          5.58080        5.29550        1.34350
C          5.29390        6.65460        1.93440
C          6.69370        4.64640        1.83440
C          7.02490        3.35530        1.44130
C          8.27970        2.80150        2.06930
H          0.13110        2.09770       -1.88430
H         -0.57410        2.00340       -4.22230
H         -0.56460       -0.14470       -5.45700
H          0.16230       -2.21410       -4.31750
H          0.84970       -2.17220       -2.02190
H         -0.52340       -2.44200       -0.53000
H         -0.95340       -4.45870        0.68670
H         -0.21110       -4.69310        3.03040
H          0.97820       -2.82340        4.14360
H          1.50330       -0.74700        2.89030
H          0.09490        2.21700        0.28730
H          0.15660        1.42010        1.87520
H         -1.65840       -0.52480        2.12910
H         -4.10600       -0.65660        2.16040
H         -5.46420        0.94600        0.83380
H         -4.34340        2.68520       -0.53900
H         -1.89520        2.82880       -0.58150
H          4.41940        1.72870        2.10770
H          1.82680        2.84380        1.07580
H          2.86690        3.42540        2.44530
H          8.81720       -2.65930       -1.50420
H          8.13470       -3.94720       -2.39150
H          8.89530       -4.20530       -0.77740
H          7.01660       -5.70240       -1.16140
H          5.44040       -7.41080       -0.74980
H          3.75980       -6.77260       -0.81660
H          4.52240       -7.12900        0.77830
H          3.50620       -4.71600        0.91230
H          2.85430       -2.38730        0.87050
H          4.09550       -1.22000        1.52580
H          3.73490       -2.69520        2.37280
H          8.42530       -0.92080       -0.85950
H          8.15200       -0.92990        0.94490
H          7.68090        1.08570       -1.31570
H          8.67180        1.24120        0.15390
H          4.50070        1.71570       -1.45410
H          4.23550        3.35690       -2.08370
H          3.12860        2.69440       -0.87710
H          3.94560        5.19710       -0.05220
H          4.38490        7.13540        1.52650
H          6.16600        7.33130        1.79430
H          5.15320        6.53350        3.03490
H          7.31340        5.16310        2.55940
H          8.69420        3.45850        2.85950
H          9.09480        2.81530        1.31950
H          8.10140        1.79910        2.50540
