64

P          0.96930        0.00330       -0.09510
C          0.04750       -1.11740        1.01280
C         -1.01890       -0.73290        1.84530
C         -1.51890       -1.62280        2.80760
C         -0.95030       -2.89010        2.96780
C          0.09860       -3.28780        2.14290
C          0.58010       -2.41610        1.16320
C          0.48930        1.58020        0.67640
C          0.95820        1.94880        1.94600
C          0.44120        3.08920        2.58260
C         -0.55500        3.85440        1.96680
C         -1.01480        3.50470        0.70070
C         -0.48650        2.38850        0.05390
C          0.18000       -0.29800       -1.71930
C          0.86930       -0.65790       -2.89900
O          2.20750       -0.89850       -2.86460
C          2.99820       -1.23600       -3.94580
C          0.14620       -0.77330       -4.11470
C         -1.23320       -0.57770       -4.14250
C         -1.91870       -0.29050       -2.97180
C         -1.22250       -0.16080       -1.77270
Pt         3.42930        0.00330       -0.09510
Br         3.46400        1.54320       -2.06790
C          3.47300       -1.30670        1.57970
C          4.51990       -2.13670        1.82100
N          5.52930        0.00330       -0.09510
C          6.23570        0.02360       -1.25880
C          7.63020       -0.16750       -1.24830
C          8.34720       -0.25490       -0.02590
N          9.78050       -0.50820        0.03480
C         10.55310       -0.96180       -1.11570
C         10.56210       -0.40530        1.26430
C          7.58650       -0.11170        1.15000
C          6.20480       -0.02030        1.08840
H         -1.45180        0.25220        1.78170
H         -2.32940       -1.31910        3.45490
H         -1.31280       -3.56030        3.73790
H          0.55780       -4.26110        2.28050
H          1.42440       -2.74060        0.56500
H          1.69620        1.34350        2.45280
H          0.79080        3.36850        3.56670
H         -0.97920        4.71490        2.46950
H         -1.79720        4.08420        0.22380
H         -0.89360        2.15420       -0.91310
H          4.04550       -1.36890       -3.60880
H          2.97720       -0.42250       -4.70540
H          2.64950       -2.18700       -4.40230
H          0.63770       -1.01930       -5.04380
H         -1.77630       -0.66320       -5.07680
H         -2.99280       -0.15610       -2.98670
H         -1.78780        0.06920       -0.88130
H          2.61610       -1.45730        2.20340
H          5.37240       -2.21060        1.16120
H          4.51530       -2.85280        2.63250
H          5.72320        0.01990       -2.20840
H          8.09940       -0.26570       -2.21230
H          9.97200       -1.11250       -2.03600
H         11.01290       -1.94770       -0.88150
H         11.36610       -0.23690       -1.32980
H         10.01790       -0.04220        2.14680
H         11.39710        0.31010        1.11460
H         10.98680       -1.39960        1.52470
H          7.99550       -0.11610        2.14210
H          5.66440        0.07890        2.02010
