57

P          1.07080        0.06820        0.01840
O          0.74810       -1.47970       -0.63250
C          1.23240       -1.51530       -1.96110
C          0.80940       -2.83240       -2.59970
O          0.76940        0.35220        1.67830
C         -0.60230        0.10500        1.92230
C         -0.92730        0.37860        3.38170
C         -0.03220        1.25410       -0.79300
C         -1.01570        0.93730       -1.74370
C         -1.63300        1.96640       -2.48990
C         -1.25600        3.30040       -2.29630
C         -0.30720        3.62860       -1.32940
C          0.28470        2.61290       -0.57890
Pt         3.53080        0.06820        0.01840
Br         3.53080       -2.04690        1.51310
C          3.53080        1.82410       -1.22240
C          4.48510        2.31890       -2.00190
P          5.99080        0.06820        0.01840
C          7.12110       -1.13250        0.83160
C          6.21780       -0.68070       -1.64080
C          6.78870        1.70670        0.62330
C          6.43830        1.84450        2.12010
C          8.32680        1.64860        0.45770
C          6.37050        3.04460       -0.01400
H          2.33540       -1.44140       -1.98850
H          0.79480       -0.71470       -2.58900
H          1.27000       -3.68080       -2.05060
H          1.13510       -2.86070       -3.65930
H         -0.29870       -2.93630       -2.56510
H         -0.86350       -0.95360        1.69800
H         -1.25250        0.79540        1.34250
H         -0.34630       -0.29720        4.03970
H         -2.01320        0.20810        3.55490
H         -0.69370        1.43570        3.63230
H         -1.28510       -0.08380       -1.94530
H         -2.36380        1.72240       -3.23920
H         -1.69390        4.08670       -2.90170
H          0.00030        4.65430       -1.18750
H          1.05130        2.88950        0.13760
H          2.58980        2.30820       -1.37200
H          5.44830        1.87110       -2.09390
H          4.27800        3.17910       -2.63160
H          6.74790       -2.15640        0.61600
H          7.08670       -1.02850        1.93320
H          8.15980       -1.09230        0.45920
H          5.79570       -1.70700       -1.63160
H          7.30460       -0.75200       -1.86340
H          5.73070       -0.14540       -2.46810
H          6.79510        0.98580        2.71850
H          5.33640        1.91980        2.24680
H          6.90120        2.75450        2.56100
H          8.80030        0.84290        1.04490
H          8.80470        2.58380        0.82850
H          8.59160        1.52820       -0.61490
H          5.29300        3.24600        0.13530
H          6.71480        3.13380       -1.06260
H          6.88190        3.89430        0.49010
