83

P          1.06750       -0.05400       -0.05020
C          0.63380       -0.06250       -2.07260
C          1.22530        1.03610       -3.00870
C          2.60860        0.65150       -3.67290
C          2.66910       -0.62370       -4.45500
C          2.15570       -1.73010       -3.53060
C          0.73780       -1.32110       -3.06300
C          0.20760       -1.59910        0.74960
C         -1.33650       -1.59000        0.55870
C         -1.78030       -2.12170       -0.82460
C         -1.18880       -3.50940       -1.13950
C          0.32490       -3.63760       -0.83600
C          0.61790       -3.11630        0.53520
C          0.33940        1.63260        0.51100
C         -0.88130        2.25130       -0.01280
C         -1.79710        1.75440       -1.09600
C         -1.43160        3.39980        0.59420
C         -0.92480        3.94510        1.75020
C         -1.61910        5.11260        2.40690
C          0.18090        3.34700        2.32570
C          0.81240        2.21380        1.74810
C          1.93830        1.64190        2.57960
Pt         3.52750       -0.05400       -0.05020
Br         3.52750        2.13220       -1.43880
C          3.52750       -1.86890        1.10260
C          4.45910       -2.82260        1.10320
C          5.67750       -0.05400       -0.05020
N          6.55490       -0.59990        0.87690
C          6.35250       -1.13930        2.22790
C          7.81080       -0.36450        0.42540
C          9.11370       -0.76000        1.08390
C          7.75290        0.33820       -0.73220
C          8.93420        0.84340       -1.55180
N          6.45360        0.55620       -1.03330
C          6.11710        1.19220       -2.31550
H         -0.39360        0.14280       -2.15710
H          1.17970        2.01140       -2.48970
H          0.54820        1.18510       -3.88160
H          3.31090        0.32500       -2.91630
H          3.00350        1.50070       -4.27500
H          3.73020       -0.82070       -4.75600
H          2.06790       -0.53020       -5.38070
H          2.82440       -1.88790       -2.65170
H          2.15690       -2.66440       -4.12960
H          0.12290       -2.17350       -2.84490
H          0.21110       -1.06870       -4.01410
H          0.38330       -1.41630        1.83100
H         -1.76130       -0.58930        0.77410
H         -1.78500       -2.28060        1.30750
H         -1.50530       -1.44150       -1.61190
H         -2.88860       -2.17030       -0.88310
H         -1.39950       -3.77720       -2.20090
H         -1.71100       -4.24490       -0.50000
H          1.07220       -3.11760       -1.43370
H          0.61030       -4.70450       -0.94230
H          1.64680       -3.41980        0.71950
H          0.03250       -3.73840        1.24870
H         -1.93470        0.67200       -1.09310
H         -1.68510        2.31780       -2.04200
H         -2.85160        1.92020       -0.77340
H         -2.33760        3.85010        0.18980
H         -2.50870        5.44830        1.82610
H         -0.93030        5.97450        2.50960
H         -1.98270        4.81290        3.41340
H          0.52980        3.76800        3.26550
H          2.00960        2.15170        3.57520
H          2.91280        1.78370        2.08020
H          1.75140        0.57650        2.81630
H          2.64810       -2.03280        1.68570
H          5.32990       -2.75940        0.46460
H          4.32490       -3.71170        1.71110
H          5.31720       -1.00350        2.58470
H          6.96140       -0.55420        2.94890
H          6.70700       -2.19290        2.28360
H          8.97510       -1.34070        2.01530
H          9.69780        0.15650        1.32100
H          9.70420       -1.38280        0.37820
H          9.90640        0.56840       -1.07800
H          8.88590        1.93020       -1.63500
H          8.93200        0.37040       -2.55930
H          6.95450        1.17100       -3.03700
H          5.95970        2.27900       -2.18660
H          5.36750        0.60260       -2.85220
