112

P          0.96560        0.07780       -0.05250
C          0.30890       -0.30230       -1.81480
C         -0.80690       -1.16470       -2.03780
C         -1.41950       -1.32710       -3.28910
C         -0.92810       -0.66270       -4.39740
C          0.19110        0.14100       -4.25410
C          0.79370        0.31040       -2.99730
C          0.63530       -1.30450        1.16040
C          0.16360       -2.57940        0.72970
C          0.01620       -3.65580        1.60700
C          0.38060       -3.51800        2.93640
C          0.84740       -2.28740        3.40090
C          0.94060       -1.17670        2.53380
C         -0.46050        1.26410        0.69580
C         -0.66030        2.70330        0.08360
C         -1.20820        2.62010       -1.33050
C         -2.62270        2.02550       -1.24800
C         -2.75560        0.78960       -0.32180
C         -1.92440        0.84430        0.95680
Pt         3.42560        0.07780       -0.05250
Br         3.42560        1.99030       -1.79910
C          3.42560       -1.50980        1.39730
C          3.16930       -2.75650        1.00180
C          5.57560        0.07780       -0.05250
N          6.22390        1.31100        0.26960
C          5.95130        2.89250        0.45090
C          4.64230        3.66260        0.61020
C          3.16280        3.24130        0.63720
C          2.36890        3.22050        1.91660
C          2.33650        4.13370       -0.46860
C          4.60940        5.08510        0.67860
C          5.68130        5.86460        0.57250
C          6.88420        5.27530        0.54190
C          7.10240        3.86830        0.56690
C          8.59400        3.58190        0.79070
C          9.26930        2.98350       -0.45100
C          9.49260        4.72830        1.31970
C          7.42020        0.84050        0.73620
C          7.51510       -0.52850        0.70180
N          6.40340       -1.04350        0.22490
C          6.20580       -2.53180       -0.01660
C          6.83830       -3.73850        0.57150
C          8.17320       -3.85570        1.35080
C          8.07300       -4.50050        2.73210
C          9.17530       -4.69240        0.47430
C          6.31490       -5.02520        0.24480
C          5.39620       -5.20690       -0.76740
C          5.09460       -4.13080       -1.57270
C          5.52940       -2.84920       -1.22950
C          5.64950       -1.82300       -2.32500
C          7.18610       -1.50160       -2.58440
C          4.37570       -1.43080       -3.07540
H         -1.31580       -1.68870       -1.25850
H         -2.30300       -1.94890       -3.39190
H         -1.41940       -0.76420       -5.35960
H          0.57840        0.66570       -5.11850
H          1.59160        0.97480       -3.00600
H         -0.04210       -2.82920       -0.28260
H         -0.33810       -4.61470        1.23790
H          0.32410       -4.37950        3.59500
H          1.16760       -2.20830        4.43040
H          1.34400       -0.25230        2.91660
H         -0.13010        1.41520        1.74220
H          0.16930        3.34990        0.19180
H         -1.37990        3.32540        0.66700
H         -0.51400        2.04690       -1.93600
H         -1.26040        3.61790       -1.82190
H         -2.99300        1.77980       -2.26800
H         -3.26160        2.82560       -0.82720
H         -2.42830       -0.06760       -0.82630
H         -3.82070        0.59770       -0.09100
H         -1.98300       -0.07420        1.56860
H         -2.39950        1.63950        1.59380
H          3.73590       -1.31570        2.41900
H          2.88730       -2.93850       -0.03000
H          3.21200       -3.58340        1.70130
H          3.26200        2.16020        0.54420
H          2.02050        4.21420        2.24540
H          2.84950        2.61170        2.70310
H          1.48590        2.65060        1.65790
H          1.85360        5.05450       -0.08250
H          1.59180        3.59730       -1.08570
H          2.98900        4.50270       -1.29920
H          3.70600        5.67660        0.76510
H          5.58080        6.94610        0.55920
H          7.65860        6.02170        0.52620
H          8.60490        3.02100        1.73590
H          9.28700        3.74400       -1.25740
H          8.76310        2.09910       -0.87460
H         10.30990        2.69570       -0.19450
H          9.71410        5.48170        0.53720
H         10.45850        4.31590        1.67600
H          9.01040        5.21960        2.19950
H          8.23980        1.25760        1.15850
H          8.40340       -1.00350        1.03080
H          8.66370       -2.90080        1.48660
H          7.66660       -5.53120        2.68510
H          7.44000       -3.87450        3.38660
H          9.09110       -4.57050        3.17950
H          8.86090       -5.75250        0.34750
H         10.19360       -4.73630        0.91500
H          9.26650       -4.26830       -0.55220
H          6.68660       -5.93740        0.70020
H          5.07150       -6.20820       -1.02760
H          4.57680       -4.30470       -2.50420
H          5.49590       -0.96070       -1.87540
H          7.59630       -1.69520       -3.58340
H          7.84690       -2.09810       -1.89530
H          7.47540       -0.46960       -2.24250
H          4.18680       -2.05860       -3.94930
H          4.36270       -0.34610       -3.37970
H          3.52050       -1.54230       -2.35150
