39

C          0.90100       -0.64300       -0.00200
N         -0.36460       -1.09790       -0.10870
C         -0.79260       -2.48790       -0.22660
C         -1.64670       -2.90030        0.96980
C         -1.15330       -0.00220       -0.06970
C         -0.34560        1.11260        0.03540
N          0.93690        0.70160        0.07320
C          2.13650        1.53710        0.12540
C          2.16280        2.39850        1.38140
Pt         2.65840       -1.88140       -0.01350
Br         2.68350       -1.82190       -2.60270
C          2.63770       -1.93090        2.13580
C          1.68000       -1.36450        2.87840
N          4.37500       -3.09110       -0.02470
C          5.11770       -3.21990       -1.17840
C          6.26620       -4.00970       -1.25280
C          6.64990       -4.76400       -0.15950
Cl         8.04920       -5.81640       -0.25340
C          5.90190       -4.68380        1.00270
C          4.80180       -3.82160        1.06470
H          0.09450       -3.15550       -0.27470
H         -1.37750       -2.60820       -1.16320
H         -1.05680       -2.81480        1.90670
H         -1.97310       -3.95490        0.84800
H         -2.54950       -2.25900        1.04890
H         -2.23550       -0.01120       -0.13270
H         -0.66880        2.14660        0.06600
H          2.15610        2.19680       -0.77000
H          3.04590        0.89730        0.10440
H          1.28200        3.07360        1.40640
H          3.08280        3.02090        1.37970
H          2.16250        1.75480        2.28530
H          3.39710       -2.36430        2.74710
H          0.82750       -0.85250        2.46410
H          1.74700       -1.41010        3.96240
H          4.92700       -2.65700       -2.05780
H          6.84840       -4.03260       -2.16600
H          6.15630       -5.30070        1.85580
H          4.26120       -3.90620        1.97090
