63

P          0.98640        0.07300       -0.06700
C          0.11260        0.90940        1.40260
C         -1.40900        1.11870        1.49520
C          0.53130        0.28340        2.75060
C          0.63730        1.12580       -1.56110
C         -0.84210        1.31360       -1.90950
C          1.29990        2.49660       -1.50950
C          0.55400       -1.74870       -0.03040
C          1.04490       -2.53280        1.19080
C         -0.95340       -2.02140       -0.20890
Pt         3.44640        0.07300       -0.06700
Br         3.44640       -1.24110       -2.29880
C          3.44640        1.16390        1.78580
C          3.09890        2.44620        1.85080
P          5.90640        0.07300       -0.06700
C          7.12670        0.98050        1.01180
C          6.81640        2.48940        0.94550
C          6.99720        0.55540        2.48990
C          6.49270       -1.69070        0.19030
C          5.91920       -2.68750       -0.80440
C          8.03130       -1.81380        0.14860
C          6.20520        0.75420       -1.73110
H          0.55030        1.92650        1.38860
H         -1.97260        0.18260        1.60000
H         -1.83980        1.73460        0.70660
H         -1.61780        1.70350        2.42480
H         -0.11590       -0.56500        3.02920
H          0.41370        1.02410        3.57210
H          1.57310       -0.07320        2.77330
H          1.08670        0.57770       -2.42590
H         -1.35040        2.01300       -1.22780
H         -1.38850        0.35230       -1.96130
H         -0.95250        1.78230       -2.90540
H          0.90270        3.09240       -0.65090
H          1.10780        3.05650       -2.44370
H          2.40460        2.38450       -1.38960
H          1.05930       -2.19230       -0.90850
H          0.47370       -2.30940        2.10260
H          2.12580       -2.36840        1.36150
H          0.87520       -3.61930        1.01850
H         -1.54220       -1.63880        0.64060
H         -1.15200       -3.11080       -0.26250
H         -1.33590       -1.59470       -1.15030
H          3.72080        0.63910        2.69360
H          2.81070        2.98310        0.95740
H          3.09630        2.95870        2.80760
H          8.15060        0.84090        0.65610
H          5.77740        2.70860        1.27400
H          6.95400        2.88000       -0.08060
H          7.50320        3.05550        1.61490
H          5.97920        0.75580        2.88060
H          7.71020        1.13280        3.11050
H          7.21540       -0.51470        2.64260
H          6.16550       -2.01020        1.20130
H          6.20770       -2.41380       -1.84430
H          4.83150       -2.76850       -0.67890
H          6.32390       -3.70460       -0.59350
H          8.43660       -1.47480       -0.82640
H          8.33740       -2.86660        0.32510
H          8.52940       -1.25150        0.96020
H          5.78290        1.78500       -1.75550
H          5.72800        0.16970       -2.52880
H          7.29480        0.81840       -1.92040
