41

C          0.90100       -0.64300       -0.00200
N          0.91760        0.70140        0.02960
C          2.09160        1.56130        0.05820
C         -0.37290        1.09230        0.02400
C         -1.16590       -0.04260       -0.01240
N         -0.35530       -1.11940       -0.02760
C         -0.74110       -2.52580       -0.06430
Pt         2.65840       -1.88140       -0.01350
Br         2.63760       -1.93510        2.57590
C          2.67570       -1.83690       -2.16300
C          3.55110       -2.49070       -2.92560
N          4.37500       -3.09110       -0.02470
C          5.66460       -2.71610       -0.06710
N          6.48710       -3.79660       -0.05380
C          7.93660       -3.80520       -0.09430
C          8.67160       -2.60150       -0.13680
C         10.06910       -2.61950       -0.18840
C         10.75550       -3.83460       -0.19680
C         10.05010       -5.03510       -0.15200
C          8.65260       -5.02410       -0.09940
C          5.66650       -4.87120       -0.00010
C          4.36450       -4.43110        0.02430
H          3.01990        0.95070        0.05210
H          2.07530        2.18360        0.97710
H          2.09040        2.22280       -0.83340
H         -0.71340        2.11850        0.04440
H         -2.24770       -0.07560       -0.02190
H         -1.84740       -2.62350       -0.07850
H         -0.34430       -3.04530        0.83190
H         -0.32570       -3.00080       -0.97820
H          1.92140       -1.22640       -2.64910
H          4.32950       -3.10910       -2.50680
H          3.49340       -2.39620       -4.00490
H          5.97730       -1.68210       -0.10110
H          8.17950       -1.64110       -0.13230
H         10.61900       -1.68860       -0.22430
H         11.83650       -3.84410       -0.24220
H         10.58210       -5.97640       -0.15840
H          8.14720       -5.97750       -0.06580
H          5.96820       -5.90810        0.01760
H          3.47140       -5.04020        0.06140
