53

C          0.90100       -0.64300       -0.00200
N         -0.37450       -1.10320        0.17760
C         -0.92080       -2.46130        0.37890
C         -0.48660       -3.42550       -0.72320
C         -0.59200       -3.00310        1.76870
C         -1.16550       -0.01480        0.14890
C         -0.38270        1.09510       -0.02370
N          0.90660        0.70230       -0.12880
C          2.04070        1.61110       -0.32590
C          1.79850        2.44400       -1.59270
C          2.21720        2.49900        0.91650
Pt         2.65840       -1.88140       -0.01350
Br         2.31560       -2.07050       -2.48940
C          2.77800       -1.59290        2.09680
C          1.92970       -0.88310        2.84560
N          4.37500       -3.09110       -0.02470
C          4.56240       -4.00380       -1.02020
C          5.60670       -4.93790       -0.96330
C          6.53080       -4.93800        0.11250
N          7.58310       -5.93670        0.24820
C          7.73880       -7.06330       -0.66520
C          8.54560       -5.94750        1.34960
C          6.35480       -3.91910        1.06900
C          5.28680       -3.03590        0.98770
H         -2.03400       -2.40210        0.34090
H          0.61020       -3.57890       -0.69860
H         -0.79130       -3.03210       -1.71570
H         -0.98100       -4.41150       -0.57610
H          0.49570       -3.14850        1.90240
H         -1.10530       -3.97860        1.92100
H         -0.97520       -2.29910        2.53970
H         -2.24220       -0.02120        0.26610
H         -0.73910        2.11400       -0.06910
H          2.98470        1.04160       -0.46700
H          0.84400        3.01050       -1.53330
H          1.74720        1.76600       -2.47080
H          2.62130        3.17060       -1.75080
H          1.25750        2.95690        1.24030
H          2.94940        3.31120        0.72500
H          2.60500        1.88160        1.75530
H          3.52520       -2.08580        2.68730
H          1.08950       -0.33960        2.45020
H          2.07390       -0.86020        3.92140
H          3.85960       -4.09530       -1.82810
H          5.62610       -5.65280       -1.76470
H          7.01350       -7.10960       -1.48660
H          7.63010       -8.01400       -0.09920
H          8.75030       -7.03520       -1.12160
H          8.46950       -5.12160        2.06670
H          9.57840       -5.91080        0.94510
H          8.42530       -6.88200        1.93910
H          6.99290       -3.76940        1.91840
H          5.24950       -2.28550        1.74550
