53

P          1.09340        0.03130       -0.01730
C          0.24080        1.56350        0.73140
C         -1.27620        1.81230        0.70320
C          0.67520        1.81030        2.19660
C          0.71490        0.04160       -1.84920
C         -0.78600       -0.00040       -2.20810
C          1.36040        1.20390       -2.59370
C          0.61250       -1.44170        1.05120
C          1.04680       -1.38550        2.51860
C         -0.89490       -1.76810        1.01270
Pt         3.55340        0.03130       -0.01730
Br         3.55340       -2.31220       -1.12000
C          3.55340        1.97670        0.89810
C          3.22430        3.08540        0.24050
N          5.65340        0.03130       -0.01730
C          6.35540       -0.89950       -0.74310
C          7.75990       -0.90620       -0.81520
O          8.44620       -1.77500       -1.62070
C          7.88420       -2.60300       -2.57460
C          8.46800        0.00660       -0.06080
C          7.77970        0.95160        0.68770
C          6.38040        0.97010        0.67370
H          0.68480        2.38710        0.14010
H         -1.84220        1.10250        1.32500
H         -1.71380        1.88650       -0.29040
H         -1.46690        2.81710        1.14680
H          0.02140        1.29150        2.91570
H          0.57750        2.88850        2.44790
H          1.70800        1.50620        2.41820
H          1.14570       -0.89950       -2.24940
H         -1.29460        0.95010       -2.01660
H         -1.33250       -0.81830       -1.71820
H         -0.91290       -0.16210       -3.29780
H          0.97380        2.17500       -2.22380
H          1.11630        1.12600       -3.67810
H          2.46150        1.15910       -2.48740
H          1.13440       -2.30920        0.60200
H          0.42230       -0.70670        3.11680
H          2.11770       -1.12730        2.61560
H          0.87710       -2.38210        2.98280
H         -1.50920       -0.96310        1.44600
H         -1.11560       -2.67860        1.60840
H         -1.24480       -1.99390       -0.00480
H          3.85360        2.05520        1.93870
H          2.92030        3.04630       -0.79690
H          3.24420        4.04030        0.75830
H          5.87410       -1.60440       -1.36170
H          8.69080       -3.12910       -3.12360
H          7.30850       -2.00000       -3.31220
H          7.22030       -3.35620       -2.10220
H          9.55060        0.00960       -0.07830
H          8.33000        1.67890        1.27080
H          5.92490        1.72400        1.27890
