59

C          0.90100       -0.64300       -0.00200
N         -0.42980       -0.99450        0.04830
C         -1.05580       -2.32590       -0.16740
C         -0.85900       -3.30730        0.99630
C         -1.85680       -3.05960        2.14440
C         -3.29850       -3.22730        1.63810
C         -3.58610       -2.17530        0.56720
C         -2.57350       -2.31140       -0.59250
C         -1.10220        0.17750        0.12130
C         -0.20200        1.22070        0.12590
N          1.06050        0.71650        0.03130
C          2.32840        1.48230       -0.06980
C          2.12980        3.01140       -0.03300
C          1.80370        3.51620        1.39100
C          2.95640        3.18000        2.34010
C          3.16840        1.66220        2.38130
C          3.43410        1.11080        0.96800
Pt         2.65840       -1.88140       -0.01350
Br         2.77690       -1.68940       -2.59370
C          2.56020       -2.04080        2.12830
C          1.66540       -1.43030        2.90850
N          4.37500       -3.09110       -0.02470
C          4.50260       -4.15990       -0.87330
Cl         3.17230       -4.69960       -1.88450
C          5.62980       -4.98570       -0.80000
C          6.65370       -4.67530        0.09130
C          6.52010       -3.57770        0.93650
C          5.34760       -2.82200        0.89360
H         -0.52460       -2.72290       -1.05960
H          0.18710       -3.27380        1.34670
H         -1.05500       -4.33440        0.61410
H         -1.72460       -2.04150        2.57170
H         -1.67680       -3.80750        2.94400
H         -4.02290       -3.11770        2.47520
H         -3.43160       -4.24950        1.21420
H         -3.55110       -1.17310        1.03600
H         -4.62260       -2.32330        0.18090
H         -2.77770       -1.54430       -1.37330
H         -2.79550       -3.29770       -1.05670
H         -2.16960        0.30590        0.14100
H         -0.47220        2.26000        0.15340
H          2.74440        1.21200       -1.07200
H          1.34730        3.31660       -0.75810
H          3.07320        3.50590       -0.35410
H          0.87460        3.05520        1.78690
H          1.65660        4.61560        1.37040
H          2.73290        3.55780        3.36210
H          3.88280        3.68660        1.98660
H          2.27270        1.18520        2.82090
H          4.04000        1.44140        3.04030
H          3.62900        0.02680        0.99410
H          4.38520        1.58150        0.62670
H          3.28590       -2.68090        2.61630
H          0.89540       -0.78340        2.51710
H          1.69760       -1.58480        3.98220
H          5.70160       -5.87480       -1.41400
H          7.53890       -5.29550        0.14100
H          7.31370       -3.31780        1.62500
H          5.25120       -1.96290        1.54340
