41

C          0.90100       -0.64300       -0.00200
N         -0.40860       -1.04960       -0.07640
C         -1.07200       -2.36350       -0.24950
C         -0.09990       -3.51130       -0.48610
C         -1.96030       -2.64200        0.96290
C         -1.13430        0.09170       -0.06370
C         -0.29570        1.17770        0.06400
N          0.98150        0.71600        0.11590
C          2.16210        1.57130        0.32590
C          2.32510        2.56960       -0.81240
C          2.02580        2.31620        1.66380
Pt         2.65840       -1.88140       -0.01350
Br         2.74800       -1.73040       -2.59750
C          2.58410       -2.00680        2.13160
C          1.73680       -1.33570        2.91440
C          4.41590       -3.11990       -0.02500
N          4.54690       -4.22660       -0.78080
C          5.76180       -4.69970       -0.45090
C          6.35880       -3.81080        0.41330
O          5.48160       -2.88060        0.70460
H         -1.73210       -2.30320       -1.14200
H          0.62050       -3.60630        0.34450
H          0.41370       -3.36810       -1.45060
H         -0.69130       -4.45450       -0.56120
H         -1.35710       -2.73620        1.89620
H         -2.53570       -3.58550        0.81660
H         -2.71040       -1.83310        1.11910
H         -2.21360        0.15010       -0.12280
H         -0.60070        2.20910        0.13960
H          3.06180        0.90830        0.37410
H          1.43480        3.23690       -0.88070
H          2.44430        2.04750       -1.78660
H          3.21320        3.20610       -0.63690
H          1.18240        3.03780        1.62140
H          2.95510        2.87760        1.88130
H          1.83360        1.60700        2.49250
H          3.28960       -2.68180        2.60510
H          0.99530       -0.65720        2.52260
H          1.77550       -1.47710        3.98960
H          6.18880       -5.62150       -0.82350
H          7.36760       -3.86170        0.80170
