76

P          1.27500        0.00000        0.00000
N          0.27690        1.48190       -0.21070
C          0.84460        2.65090        0.53400
C          0.20440        3.98980        0.14170
C          0.78450        2.52340        2.08280
C         -1.16260        1.34280       -0.11170
C         -1.51240       -0.09330        0.12330
C         -3.05250       -0.19090        0.18530
C         -0.99560       -0.92810       -1.09400
N          0.49820       -1.07830       -1.23930
C          0.75890       -2.57820       -1.08830
C          0.16900       -3.40380       -2.26260
C          2.20880       -3.05210       -0.97020
N          0.63600       -0.38860        1.62400
C          1.22980       -1.61730        2.25830
C          2.75130       -1.55960        2.44090
C          0.63230       -1.91520        3.65190
C         -0.86190       -0.55520        1.48600
Pt         3.73500        0.00030       -0.00050
Br         3.94570        1.91350        1.57490
C          4.02480       -1.01250       -1.79850
C          3.44060       -0.64510       -2.93660
C          5.88500        0.00060       -0.00090
N          6.74020        1.02670       -0.22970
C          6.41080        2.40490       -0.60140
C          7.98520        0.50970       -0.12390
C          9.27960        1.24670       -0.32430
C          7.87900       -0.83540        0.19110
C          9.00530       -1.80180        0.42290
N          6.56800       -1.13950        0.27290
C          6.00180       -2.43950        0.65990
H          1.89440        2.75930        0.21070
H         -0.84970        4.06010        0.47730
H          0.26290        4.14350       -0.95350
H          0.76160        4.81800        0.63720
H         -0.25600        2.43830        2.45340
H          1.24740        3.41370        2.55920
H          1.35920        1.66860        2.47570
H         -1.60470        1.71240       -1.06580
H         -1.59090        1.95890        0.70510
H         -3.49840        0.14470       -0.77830
H         -3.45660        0.45580        0.99330
H         -3.37580       -1.23440        0.37440
H         -1.40260       -0.52980       -2.04770
H         -1.51420       -1.89740       -0.94660
H          0.25070       -2.94830       -0.18170
H          0.63240       -3.10460       -3.22520
H         -0.92820       -3.32750       -2.36710
H          0.37090       -4.48900       -2.10150
H          2.70810       -3.02460       -1.95750
H          2.23860       -4.12680       -0.68600
H          2.76620       -2.52630       -0.19130
H          1.01720       -2.49980        1.64510
H          3.04910       -0.78170        3.16900
H          3.27530       -1.37330        1.50530
H          3.11230       -2.55190        2.79720
H          0.88200       -1.10520        4.36650
H          1.05020       -2.87280        4.03730
H         -0.46660       -2.04800        3.63710
H         -1.32760        0.02190        2.31550
H         -1.17540       -1.61420        1.60600
H          4.72110       -1.83670       -1.85220
H          2.75610        0.18990       -2.97160
H          3.66000       -1.20300       -3.84520
H          5.32120        2.54830       -0.69680
H          6.86390        2.63690       -1.58680
H          6.81990        3.10180        0.16400
H          9.11490        2.31010       -0.57830
H          9.84870        0.76800       -1.15030
H          9.88240        1.18960        0.60660
H          9.99300       -1.31880        0.29780
H          8.92670       -2.63550       -0.30650
H          8.93910       -2.20730        1.45350
H          6.79380       -3.18160        0.86420
H          5.34930       -2.86030       -0.11820
H          5.41680       -2.31130        1.59100
