77

C          0.90100       -0.64300       -0.00200
N         -0.37910       -1.20970        0.10810
C         -0.85180       -2.61580        0.28900
C         -0.10090       -3.63000        0.99910
C          0.98050       -3.39130        1.99540
C         -0.45320       -4.97700        0.94320
C         -1.59410       -5.39140        0.30200
C         -1.90580       -6.84860        0.19340
C         -2.46880       -4.43680       -0.18730
C         -2.14810       -3.06500       -0.18480
C         -3.26270       -2.17150       -0.67600
C         -1.21830       -0.14680        0.15080
C         -0.54840        1.02170        0.10430
N          0.76450        0.78550        0.07590
C          1.82490        1.83310       -0.03030
C          1.79740        3.26930        0.16470
C          0.64260        4.12960        0.58620
C          3.01040        4.01420        0.02180
C          4.22200        3.39680       -0.31430
C          5.53170        4.12410       -0.38920
C          4.22630        2.04290       -0.52050
C          3.04840        1.33270       -0.34710
C          3.02360       -0.06680       -0.43540
Pt         2.65840       -1.88140       -0.01350
Br         1.69020       -3.23710       -1.99660
C          3.46220       -0.75610        1.63270
C          3.03900        0.29870        2.37990
C          4.41590       -3.11990       -0.02500
N          5.04380       -3.62220        1.00030
C          4.53700       -3.73540        2.37090
C          5.63030       -3.63060        3.42670
C          6.13640       -4.47450        0.58340
C          6.08410       -4.46710       -0.93450
N          5.00680       -3.56050       -1.25530
C          5.15930       -2.67950       -2.43200
C          6.35650       -1.68000       -2.39920
H          0.74600       -2.48380        2.60120
H          0.92700       -4.11830        2.83720
H          1.95800       -3.53850        1.51750
H          0.16860       -5.71980        1.43580
H         -1.06250       -7.47120        0.56600
H         -2.05100       -7.09120       -0.88040
H         -2.82130       -7.09090        0.76600
H         -3.41430       -4.78010       -0.58680
H         -4.15720       -2.73770       -1.00930
H         -2.93840       -1.51510       -1.50340
H         -3.66840       -1.60400        0.19240
H         -2.27470       -0.13100        0.26280
H         -1.05260        1.95820        0.08570
H         -0.30730        3.64670        0.77660
H          0.48240        4.93180       -0.16760
H          0.91940        4.60410        1.55050
H          3.02010        5.08260        0.19640
H          5.42800        5.18350       -0.08660
H          5.97440        4.06270       -1.40700
H          6.23340        3.63070        0.32120
H          5.15010        1.53110       -0.78100
H          4.06620       -0.43190       -0.63270
H          2.66090       -0.27580       -1.48210
H          1.82630       -1.42430        1.32960
H          4.44230       -1.10680        1.93170
H          2.08940        0.78520        2.23250
H          3.68050        0.70110        3.15810
H          4.11480       -4.76700        2.48450
H          3.71510       -3.05210        2.60720
H          6.40040       -4.41970        3.27970
H          5.18540       -3.79770        4.43230
H          6.09690       -2.63040        3.38350
H          6.00380       -5.52320        0.93950
H          7.08600       -4.05670        0.97800
H          5.80560       -5.46520       -1.32690
H          7.07440       -4.17550       -1.35010
H          4.23830       -2.09700       -2.61590
H          5.34730       -3.32520       -3.31610
H          6.25600       -0.89670       -1.62090
H          6.41320       -1.15010       -3.38120
H          7.34690       -2.17140       -2.28210
