83

P         -1.35000        0.00100        0.79800
N          0.37320        0.57350        1.10600
C          1.03770       -0.11540        2.24750
C          1.44930        0.95320        0.16000
C          1.02390        1.26200       -1.21840
N          0.23590        0.17840       -1.85550
C          0.29610       -1.31840       -1.71750
C          0.36070       -1.93680       -0.29180
N         -0.78910       -1.68730        0.63110
C         -1.82480       -2.69910        0.59090
N         -1.77840        1.23170       -0.46220
C         -2.71380        2.24900        0.00870
C         -2.08810        0.69960       -1.81990
C         -0.82970        0.68660       -2.67790
Pt        -3.32260        0.00260        2.26790
Br        -4.67580       -1.25600        0.45320
C         -2.19930        1.04740        3.77420
C         -1.04130        0.88880        4.39890
C         -5.04660        0.00400        3.55250
N         -5.32000       -0.94460        4.45390
C         -4.32610       -1.96660        4.84160
C         -3.73570       -1.56430        6.19220
C         -4.74320       -1.78830        7.32560
C         -5.12300       -3.27410        7.38230
C         -5.72790       -3.76000        6.04950
C         -4.79350       -3.44600        4.86670
C         -6.57860       -0.66710        4.88720
C         -7.00110        0.51280        4.28230
N         -6.01490        0.94090        3.47780
C         -5.76250        2.25510        2.84180
C         -6.75850        2.74390        1.78340
C         -8.04850        3.30770        2.38910
C         -7.74110        4.41180        3.39870
C         -6.85010        3.87430        4.53010
C         -5.54510        3.34770        3.92720
H          0.42610       -0.93000        2.67560
H          1.39590        0.63480        2.98480
H          1.96850       -0.66500        1.97290
H          2.25250        0.19370        0.05880
H          1.95870        1.85350        0.58210
H          1.91030        1.52560       -1.83670
H          0.42150        2.19890       -1.12630
H          1.17190       -1.67960       -2.28680
H         -0.60260       -1.76150       -2.18130
H          1.31160       -1.68440        0.18970
H          0.47580       -3.02610       -0.42780
H         -1.37160       -3.70060        0.76210
H         -2.33690       -2.69350       -0.39150
H         -2.51900       -2.55560        1.44290
H         -3.48570        1.79810        0.64950
H         -3.23030        2.76340       -0.83230
H         -2.14880        3.03530        0.55030
H         -2.50910       -0.32420       -1.74950
H         -2.79880        1.33050       -2.39830
H         -0.57420        1.72290       -3.02590
H         -0.93250        0.10140       -3.61720
H         -2.75860        1.91960        4.09490
H         -0.38390        0.07960        4.24580
H         -0.74530        1.63930        5.13090
H         -3.49720       -1.90900        4.09330
H         -3.42870       -0.49770        6.14700
H         -2.82820       -2.17290        6.39090
H         -5.64540       -1.16400        7.19480
H         -4.28820       -1.47240        8.28520
H         -5.84730       -3.44490        8.20660
H         -4.20080       -3.85450        7.60310
H         -6.71200       -3.29300        5.88440
H         -5.89890       -4.85780        6.10880
H         -5.24570       -3.76430        3.90090
H         -3.87990       -4.06800        5.01600
H         -7.15250       -1.21640        5.60560
H         -7.92710        1.02160        4.49430
H         -4.78520        2.15930        2.33940
H         -6.97190        1.94670        1.04630
H         -6.27260        3.58680        1.23840
H         -8.62840        2.51030        2.88540
H         -8.67140        3.73950        1.57840
H         -8.67160        4.83150        3.83100
H         -7.19820        5.26210        2.90420
H         -7.39280        3.09010        5.08760
H         -6.62750        4.69060        5.26190
H         -4.88250        2.96410        4.74390
H         -5.02280        4.21500        3.47210
