41

C          0.90100       -0.64300       -0.00200
N         -0.36350       -1.11930        0.10210
C         -0.80340       -2.51180        0.14140
C         -1.18040       -0.05150        0.04440
C         -0.40830        1.07960       -0.10920
N          0.89030        0.70200       -0.15840
C          2.02730        1.60650       -0.25340
Pt         2.65840       -1.88140       -0.01350
Br         3.31250       -0.93170       -2.33260
C          2.11550       -2.66980        1.91160
C          1.02380       -2.42690        2.64160
N          4.37500       -3.09110       -0.02470
C          5.60670       -2.61480       -0.42760
N          5.85260       -1.19420       -0.50970
C          5.10150       -0.27150        0.33350
C          6.99040       -0.61820       -1.20930
C          6.69000       -3.51600       -0.51500
C          6.51150       -4.85650       -0.19020
C          5.27470       -5.29730        0.26130
C          4.21980       -4.39240        0.35770
H          0.06590       -3.20020        0.10950
H         -1.43430       -2.72080       -0.74870
H         -1.40760       -2.70260        1.05210
H         -2.26130       -0.08810        0.08790
H         -0.76080        2.09700       -0.18370
H          1.68490        2.66190       -0.28460
H          2.61280        1.41360       -1.16610
H          2.66500        1.48100        0.64760
H          2.85150       -3.31170        2.38140
H          0.24580       -1.75020        2.34860
H          0.92000       -2.89330        3.61600
H          4.32110       -0.77340        0.93720
H          4.65590        0.53220       -0.27690
H          5.79140        0.20390        1.06540
H          7.54130       -1.35060       -1.82530
H          7.69250       -0.16530       -0.47340
H          6.63590        0.18050       -1.89310
H          7.68870       -3.19940       -0.77320
H          7.34360       -5.54600       -0.25540
H          5.13060       -6.33740        0.52370
H          3.25040       -4.75900        0.66250
