37

C         -0.18800       -1.35400       -0.00200
N         -1.11440       -0.36450       -0.03390
C         -2.56380       -0.49880       -0.05230
C         -0.41190        0.79940       -0.00510
C         -0.98380        2.18770       -0.00110
C          0.93680        0.49850        0.02300
C          2.08120        1.47530        0.02550
N          1.06410       -0.84420        0.03450
C          2.30470       -1.61670        0.04900
Pt        -0.49020       -3.48260       -0.01010
Br        -0.61190       -3.45560       -2.59710
C         -0.38910       -3.50510        2.13750
C         -0.03370       -2.44630        2.87330
O         -0.77830       -5.51230       -0.01770
C         -1.06470       -6.23030       -1.09480
C         -1.19070       -7.55990       -0.76410
C         -0.97700       -7.63810        0.58270
C         -0.71040       -6.35630        1.00600
H         -2.86150       -1.56630       -0.05930
H         -2.97220        0.00610       -0.95330
H         -2.98740       -0.01220        0.85390
H         -2.09050        2.18150       -0.00810
H         -0.62230        2.74040       -0.89350
H         -0.64060        2.72080        0.91160
H          1.72450        2.52540        0.00670
H          2.70730        1.30950       -0.87710
H          2.70320        1.33210        0.93280
H          3.19310       -0.95150        0.10130
H          2.38020       -2.21740       -0.88060
H          2.32440       -2.29000        0.93000
H         -0.69790       -4.33560        2.73480
H          0.25010       -1.49690        2.45070
H         -0.05570       -2.51490        3.95720
H         -1.18290       -5.88750       -2.10180
H         -1.41260       -8.38050       -1.43330
H         -1.00430       -8.53070        1.19380
H         -0.49130       -6.16710        2.03100
