43

P          0.93880       -0.07900        0.00410
O         -0.48020        0.17380       -0.90390
C         -0.14540        1.15410       -1.90320
O          0.47960       -1.58650        0.65180
C          0.58290       -2.55540       -0.36670
O          0.78970        1.52300        0.61070
C          0.94530        1.58730        1.99530
Pt         3.39880       -0.07900        0.00410
Br         3.39880       -0.44770        2.56770
C          3.39880        0.22710       -2.12400
C          3.37520       -0.75270       -3.02340
N          5.49880       -0.07900        0.00410
C          5.55830        1.09180        0.93120
C          6.13830        0.25350       -1.28200
C          6.32710       -0.99440        0.79350
C          5.82130       -2.10600        1.48160
C          6.65690       -2.92060        2.25430
C          8.03220       -2.64810        2.35400
C          8.57590       -1.58670        1.64860
C          7.74160       -0.77210        0.88740
H         -0.57030        0.88790       -2.89130
H          0.94140        1.29100       -2.11190
H         -0.52520        2.14350       -1.58280
H         -0.05510       -3.42080       -0.09000
H          1.63110       -2.90800       -0.45630
H          0.19250       -2.21770       -1.35510
H          0.44510        2.51130        2.35140
H          2.01260        1.74630        2.22600
H          0.47450        0.73910        2.53740
H          3.40240        1.25620       -2.47090
H          3.36090       -1.79230       -2.72450
H          3.36910       -0.49490       -4.08020
H          4.53520        1.47090        1.11520
H          6.09090        1.96550        0.50110
H          5.99970        0.95430        1.95680
H          5.59880        1.05160       -1.81750
H          6.30530       -0.64280       -1.91060
H          7.10420        0.78420       -1.15990
H          4.77240       -2.36640        1.42080
H          6.25360       -3.74800        2.81010
H          8.67680       -3.26740        2.96240
H          9.63520       -1.37040        1.70740
H          8.23220        0.05150        0.40000
