32

N         -1.44420       -0.04800       -0.05150
C         -0.76470        1.03930       -0.50640
C          0.63780        1.07250       -0.48240
F          1.30470        2.16150       -0.93530
C          1.35060       -0.02600       -0.00590
C          0.65680       -1.14080        0.45800
C         -0.75070       -1.13960        0.42130
Pt        -3.47560       -0.20170       -0.28210
Br        -3.17340       -1.16660       -2.66650
C         -3.72660        0.59920        1.69730
C         -2.69960        0.96270        2.47340
N         -5.51110       -0.39530       -0.45770
C         -6.28980       -0.86090        0.56690
C         -7.65190       -1.16560        0.34320
C         -8.48340       -1.86410        1.37700
C         -8.22990       -0.86270       -0.89170
C         -7.45360       -0.29410       -1.89080
C         -6.08340       -0.11590       -1.66930
H         -1.31310        1.89210       -0.86500
H          2.43690       -0.01310       -0.00620
H          1.21460       -1.99990        0.82010
H         -1.27150       -2.04300        0.72200
H         -4.71530        0.65460        2.13380
H         -1.67230        0.84790        2.16410
H         -2.87140        1.31010        3.48650
H         -5.84020       -1.13050        1.50840
H         -7.90180       -2.04860        2.30210
H         -8.81200       -2.85220        0.97580
H         -9.38360       -1.26440        1.61490
H         -9.27670       -1.07770       -1.08220
H         -7.90710       -0.02510       -2.83880
H         -5.49310        0.31730       -2.46470
