29

N         -1.45070       -0.05430        0.00890
C         -0.91890        0.84410        0.89760
C          0.47210        1.02590        0.98450
C          1.31690        0.31590        0.13190
C          0.76990       -0.60570       -0.75800
C         -0.62360       -0.79000       -0.79260
Pt        -3.47560       -0.20170       -0.28210
Br        -3.58330       -2.11830        1.45660
C         -3.38630        1.38930       -1.72540
C         -2.29480        2.07810       -2.07420
N         -5.52810       -0.29190       -0.56180
C         -6.22500       -1.47950       -0.60480
Cl        -5.45230       -3.05090       -0.67860
C         -7.59840       -1.49700       -0.84990
C         -8.28980       -0.30800       -1.02110
C         -7.60230        0.89660       -0.96080
C         -6.21920        0.88930       -0.74490
H         -1.56610        1.40210        1.55600
H          0.89640        1.72590        1.69260
H          2.39070        0.48280        0.16090
H          1.42600       -1.15430       -1.42740
H         -1.03830       -1.47630       -1.51750
H         -4.28050        1.62370       -2.28820
H         -1.31600        1.88450       -1.66270
H         -2.37220        2.82850       -2.85950
H         -8.11900       -2.43910       -0.94460
H         -9.35360       -0.32770       -1.22020
H         -8.14070        1.82770       -1.08770
H         -5.72290        1.84820       -0.67480
