33

N         -1.42960       -0.06160       -0.05690
C         -0.87240        0.45570        1.09540
C          0.49950        0.75600        1.15630
C          1.31680        0.46190        0.06750
Cl         3.03430        0.83260        0.11330
C          0.75190       -0.09360       -1.07780
C         -0.63380       -0.28990       -1.13890
Pt        -3.47560       -0.20170       -0.28210
Br        -3.29970        1.20940       -2.44680
C         -3.62170       -1.37310        1.51490
C         -2.60430       -1.70560        2.32090
N         -5.52900       -0.33580       -0.43820
C         -6.09950       -0.15610       -1.66370
C         -7.47630       -0.05110       -1.82710
C         -8.31510       -0.11240       -0.70980
O         -9.66130        0.04940       -0.81540
C        -10.31690        0.33800       -1.99960
C         -7.73460       -0.32400        0.54350
C         -6.34600       -0.43900        0.66290
H         -1.49610        0.76080        1.92440
H          0.92470        1.23640        2.03220
H          1.37590       -0.34490       -1.92480
H         -1.06800       -0.70380       -2.03470
H         -4.53880       -1.86620        1.79180
H         -1.58550       -1.45010        2.15450
H         -2.75100       -2.34780        3.17720
H         -5.50420       -0.11730       -2.55870
H         -7.87490        0.10180       -2.82050
H        -11.41010        0.39620       -1.83150
H        -10.11980       -0.46540       -2.74030
H         -9.96700        1.31360       -2.40780
H         -8.34120       -0.35080        1.43980
H         -5.95780       -0.45000        1.65910
