49

N         -1.35500       -0.30580       -0.02950
C         -0.75090       -1.46450        0.36110
C          0.61860       -1.48080        0.67080
C          1.28300       -2.71440        1.20340
C          1.35810       -0.30130        0.52880
C          0.72850        0.86840        0.10440
C         -0.64420        0.85100       -0.15570
Pt        -3.36830       -0.27310       -0.26200
Br        -3.24300        0.16590        2.17300
C         -2.98440       -0.61400       -2.31500
C         -1.75350       -0.72780       -2.85610
P         -5.91680       -0.33350       -0.50840
N         -6.72570        1.29600       -0.68430
C         -8.17830        1.54320       -0.72860
C         -6.13500        2.28490        0.25870
N         -6.20960       -1.02100       -2.17780
C         -5.80730       -2.45080       -2.31770
C         -7.63240       -1.02560       -2.56980
N         -6.72690       -0.96070        1.00160
C         -6.63590       -0.28530        2.29330
C         -8.05250       -1.60090        0.85040
H         -1.34600       -2.36460        0.45020
H          0.57680       -3.56960        1.25890
H          1.63120       -2.49480        2.23610
H          2.15760       -2.99750        0.58200
H          2.41540       -0.28540        0.76540
H          1.29310        1.78700        0.00870
H         -1.15170        1.76540       -0.42730
H         -3.80320       -0.69250       -3.00590
H         -0.82170       -0.68430       -2.30360
H         -1.64640       -0.88510       -3.92230
H         -8.69720        1.18410       -1.60390
H         -8.34940        2.63220       -0.89440
H         -8.69070        1.25490        0.19860
H         -5.03310        2.19840        0.35150
H         -6.58590        2.25010        1.25820
H         -6.37280        3.32750       -0.04530
H         -4.73150       -2.61910       -2.15990
H         -5.98090       -2.78720       -3.37210
H         -6.41750       -3.15930       -1.70180
H         -7.92250       -0.04160       -2.87550
H         -8.31230       -1.50110       -1.82280
H         -7.79270       -1.52980       -3.54730
H         -5.62800       -0.38000        2.67950
H         -7.19820       -0.84040        3.06880
H         -7.15740        0.67510        2.32400
H         -8.02640       -2.43840        0.13120
H         -8.87590       -0.87850        0.67210
H         -8.32870       -2.12450        1.79280
