35

N         -1.39760       -0.04200       -0.04680
C         -0.77480        1.14980        0.17300
C          0.61430        1.26750        0.06390
C          1.39720        0.13950       -0.03530
C          2.87110        0.24190       -0.20330
C          0.78700       -1.08350       -0.05100
C         -0.57120       -1.10380       -0.28360
Pt        -3.47540       -0.21700       -0.27100
Br        -3.41670        2.13600       -1.17980
C         -3.43710       -2.20690        0.49890
C         -2.39860       -2.88940        0.93950
N         -5.56580       -0.32180       -0.50210
C         -6.24960       -1.51260       -0.60500
N         -7.54130       -1.56840       -1.00730
C         -8.28690       -0.45300       -1.09380
O         -9.58020       -0.51150       -1.51030
C        -10.17690       -1.69940       -1.89800
C         -7.70020        0.75020       -0.72670
C         -6.31080        0.81320       -0.56560
H         -1.32470        2.02350        0.42680
H          1.10760        2.21310        0.07570
H          3.18350        1.30090       -0.24480
H          3.16450       -0.22500       -1.17140
H          3.38600       -0.26760        0.61550
H          1.35520       -1.99710       -0.01050
H         -0.93220       -2.02590       -0.70150
H         -4.29790       -2.78420        0.68530
H         -1.47960       -2.49870        1.09480
H         -2.37370       -3.89940        1.24570
H         -5.79890       -2.43670       -0.51400
H        -11.23570       -1.55920       -2.19670
H        -10.15120       -2.42870       -1.06330
H         -9.63390       -2.13310       -2.75670
H         -8.28860        1.62580       -0.60780
H         -5.86310        1.77740       -0.40990
