40

P          0.92370        0.02730       -0.05860
O         -0.46380       -0.79070       -0.62570
C         -0.16050       -1.18100       -1.96360
O          0.57980       -0.08730        1.61190
C          0.58790       -1.42750        2.03250
O          0.60360        1.45710       -0.95270
C         -0.74080        1.85590       -0.71010
Pt         3.38370        0.02730       -0.05860
Br         3.38370        2.19430        1.36000
C          3.38370       -1.77150       -1.23620
C          3.78190       -1.77470       -2.50840
N          5.48370        0.02730       -0.05860
C          6.21900        1.21680        0.00750
C          5.66940        2.57270       -0.34680
C          7.60580        1.23860        0.16420
C          8.32610        0.07220        0.21890
C          7.65440       -1.11940        0.09550
C          6.24950       -1.16030       -0.06510
C          5.71500       -2.56450       -0.00960
H         -0.68760       -2.12030       -2.21860
H          0.91340       -1.41560       -2.15830
H         -0.46480       -0.39000       -2.68040
H         -0.09980       -1.50640        2.90150
H          1.60550       -1.71300        2.36600
H          0.19170       -2.14710        1.28440
H         -0.89960        2.88170       -1.09150
H         -1.00110        1.86040        0.37270
H         -1.47080        1.22930       -1.27200
H          3.01790       -2.68830       -0.78370
H          4.14430       -0.86760       -2.97570
H          3.75690       -2.70120       -3.07540
H          4.66760        2.49920       -0.81450
H          6.27950        3.00840       -1.16730
H          5.73680        3.27640        0.51050
H          8.16030        2.17500        0.19530
H          9.40080        0.08740        0.33890
H          8.24880       -2.02490        0.13480
H          6.47260       -3.29780        0.35000
H          5.50350       -2.95630       -1.02330
H          4.88750       -2.64680        0.72010
