64

N         -1.31730       -0.08480        0.03870
C         -0.64040        0.95020       -0.53230
C          0.74190        0.90090       -0.61900
C          1.41870       -0.12390        0.01890
F          2.76230       -0.19990       -0.08240
C          0.71170       -1.04910        0.77900
C         -0.67060       -1.03580        0.74830
Pt        -3.28120       -0.11040       -0.26660
Br        -3.14820        1.98500        1.09920
C         -2.96580       -1.96260       -1.20200
C         -2.04910       -2.90110       -1.14960
P         -5.81230       -0.21560       -0.60260
C         -6.67320        1.41430       -0.67970
C         -6.03760        2.16310       -1.86840
C         -8.16450        1.41580       -0.77290
C         -6.35440        2.25870        0.51750
C         -6.32460       -1.31730       -2.06020
C         -5.91860       -2.76530       -1.97610
C         -7.82700       -1.54260       -2.18460
C         -5.78910       -0.68120       -3.33610
C         -6.51370       -1.05500        0.93560
C         -5.66590       -1.49910        1.94510
C         -6.13390       -2.25890        3.02030
C         -7.50080       -2.49530        3.21580
N         -7.97260       -3.30110        4.30940
C         -7.22760       -3.42250        5.55580
C         -9.19270       -4.08890        4.18080
C         -8.38370       -1.93800        2.28510
C         -7.89980       -1.31880        1.13650
H         -1.15780        1.76140       -1.02020
H          1.28770        1.63650       -1.18770
H          1.21990       -1.79220        1.35710
H         -1.23200       -1.78230        1.30070
H         -3.55560       -2.18300       -1.99480
H         -1.25140       -2.83270       -0.51880
H         -2.15860       -3.83880       -1.69900
H         -6.38520        1.83750       -2.79920
H         -4.91610        2.11160       -1.86580
H         -6.40440        3.18260       -1.97760
H         -8.49180        1.04540       -1.70100
H         -8.53560        2.44510       -0.84990
H         -8.61140        0.90630        0.08250
H         -5.34670        2.42340        0.44860
H         -6.57410        1.82230        1.49890
H         -6.71270        3.29660        0.41030
H         -6.28810       -3.28260       -1.09990
H         -5.05800       -3.02950       -1.60030
H         -5.97610       -3.27760       -2.95900
H         -8.21890       -2.06260       -1.29510
H         -8.07710       -2.14860       -3.06880
H         -8.39060       -0.69070       -2.40580
H         -4.71760       -0.39660       -3.25050
H         -6.38170        0.15620       -3.60660
H         -6.03840       -1.24080       -4.23850
H         -4.62330       -1.29570        1.89050
H         -5.39610       -2.67040        3.67680
H         -6.31580       -2.80300        5.59170
H         -6.91520       -4.47190        5.72770
H         -7.86110       -3.06860        6.39440
H         -9.66900       -3.99650        3.18700
H         -9.92910       -3.78160        4.94440
H         -8.95720       -5.17180        4.29080
H         -9.45750       -1.97240        2.41540
H         -8.67290       -1.07370        0.44540
