43

P          1.09710       -0.01950       -0.01400
O         -0.08460       -0.43670        1.16530
C          0.30460       -1.73570        1.63490
C         -0.39330       -2.14890        2.91710
O          0.67220        1.60940       -0.30180
C          0.74820        2.38060        0.86540
C          0.08940        3.72320        0.56040
O          0.63120       -1.25670       -1.11990
C         -0.77860       -1.13970       -1.36620
C         -1.32080       -2.38090       -2.05240
Pt         3.55710       -0.01950       -0.01400
Br         3.55710        0.76260       -2.48310
C          3.55710       -0.66880        2.03560
C          4.06930       -1.83230        2.43770
N          5.65710       -0.01950       -0.01400
C          6.39770       -0.15860       -1.18210
F          5.84290       -0.44460       -2.36740
C          7.78610       -0.17260       -1.18080
C          8.48400       -0.01560       -0.00920
F          9.83970       -0.01050       -0.00650
C          7.77960        0.13240        1.17210
C          6.37840        0.10280        1.16390
F          5.79920        0.36190        2.35270
H          1.37880       -1.79410        1.87260
H          0.07390       -2.52070        0.88320
H         -0.14770       -1.44690        3.73940
H         -0.03020       -3.16450        3.20570
H         -1.48750       -2.19860        2.75670
H          1.81030        2.55130        1.14110
H          0.18400        1.92890        1.70990
H          0.60160        4.21300       -0.29610
H          0.14340        4.39320        1.44290
H         -0.97940        3.57030        0.29400
H         -1.00490       -0.23740       -1.97450
H         -1.40300       -1.10360       -0.45120
H         -0.88060       -2.49900       -3.05450
H         -2.43030       -2.28750       -2.15010
H         -1.11500       -3.28510       -1.43230
H          3.07420       -0.02290        2.76240
H          4.54390       -2.50460        1.73410
H          4.01750       -2.10100        3.48930
H          8.32470       -0.33360       -2.11220
H          8.31420        0.28910        2.10020
