29

O          1.05050        0.06170       -0.06030
C          0.49180        0.99940       -0.93540
C          0.88730        0.72570       -2.38310
C         -1.02580        0.92620       -0.78390
Pt         3.10050        0.06170       -0.06030
Br         3.10050        2.54210        0.68520
C          3.10050       -1.99730       -0.67920
C          2.66850       -2.39890       -1.87120
O          5.15050        0.06170       -0.06030
C          5.74550       -1.12940        0.36220
C          7.26560       -0.94550        0.28540
C          5.36330       -1.29310        1.84150
H          0.81010        2.02380       -0.65220
H          0.52710       -0.27910       -2.69410
H          1.99320        0.78200       -2.49710
H          0.42420        1.48120       -3.05180
H         -1.39130       -0.08980       -1.05240
H         -1.52650        1.67310       -1.43820
H         -1.30880        1.12920        0.26700
H          3.42400       -2.75100        0.03150
H          2.31320       -1.69230       -2.60420
H          2.66480       -3.45810       -2.11310
H          5.49960       -2.00330       -0.26420
H          7.57870       -0.04490        0.86260
H          7.58370       -0.81370       -0.76620
H          7.78670       -1.82830        0.71500
H          5.66540       -0.37690        2.41300
H          5.86060       -2.16270        2.31190
H          4.26380       -1.38860        1.95850
