27

N          0.96170        0.07640       -0.05190
C          0.51620        1.31830        0.61220
C          0.48740        0.06080       -1.44690
C          0.31230       -1.04850        0.65900
Pt         3.06170        0.07640       -0.05190
Br         3.06170        2.26190       -1.44180
C          3.06170       -1.73780        1.10180
C          2.74730       -2.96600        0.68940
C          5.21170        0.07640       -0.05190
N          5.95710        1.02220       -0.65200
C          7.22610        0.64300       -0.41720
C          7.20300       -0.51600        0.32680
O          5.94930       -0.84130        0.53200
H         -0.59470        1.39560        0.63880
H          0.88210        2.22090        0.09290
H          0.90350        1.35250        1.65310
H         -0.62240        0.04270       -1.50530
H          0.88050       -0.85080       -1.96180
H          0.82800        0.93270       -2.01910
H         -0.79550       -0.92590        0.67720
H          0.64370       -1.10520        1.71750
H          0.47870       -2.00910        0.13700
H          3.37860       -1.61530        2.13260
H          2.42300       -3.16800       -0.32230
H          2.79970       -3.78360        1.40620
H          8.10140        1.17880       -0.75640
H          8.06050       -1.07290        0.67570
