75

P          0.92850       -0.02010       -0.06690
O         -0.25960       -1.08410       -0.73180
C          0.10640       -1.24690       -2.10830
C         -0.58490       -2.40010       -2.81470
O          0.50220       -0.08880        1.58600
C          0.55850       -1.39710        2.08460
C         -0.12010       -1.39000        3.45090
O          0.45270        1.32760       -1.03320
C         -0.95960        1.52040       -0.88210
C         -1.50430        2.48870       -1.91870
Pt         3.38850       -0.02010       -0.06690
Br         3.38850        2.20800        1.25350
C          3.38850       -1.86970       -1.16310
C          3.71870       -3.05070       -0.64600
P          5.84850       -0.02010       -0.06690
C          6.52970       -1.04550       -1.39520
C          6.24230       -0.55790       -2.68220
C          6.47250       -1.32220       -3.81680
C          6.99080       -2.61240       -3.69850
C          7.12310       -3.47470       -4.91860
C          7.32920       -3.10080       -2.42120
C          7.10120       -2.32480       -1.26820
C          6.51030        1.66990        0.07020
C          7.28560        2.05090        1.17870
C          7.80440        3.34530        1.28290
C          7.55700        4.29160        0.27840
C          8.07100        5.69850        0.40900
C          6.80640        3.91490       -0.84320
C          6.28650        2.61670       -0.94760
C          6.18440       -1.02800        1.39370
C          5.14330       -1.48340        2.21250
C          5.43560       -2.11290        3.42110
C          6.76680       -2.30170        3.82880
C          7.09830       -2.91550        5.15400
C          7.81050       -1.86710        2.99840
C          7.52110       -1.23780        1.79590
H          1.16740       -1.48200       -2.22240
H         -0.10670       -0.33270       -2.70320
H         -0.33800       -3.36580       -2.32960
H         -0.20140       -2.44090       -3.86250
H         -1.67890       -2.23770       -2.85050
H          1.61610       -1.71080        2.20750
H         -0.00110       -2.11930        1.45200
H          0.38260       -0.66330        4.12630
H         -0.08020       -2.39830        3.91080
H         -1.18520       -1.08820        3.34410
H         -1.20510        1.88430        0.14260
H         -1.57440        0.62310       -1.08290
H         -1.07090        3.49680       -1.78370
H         -2.61380        2.54540       -1.81080
H         -1.28740        2.10900       -2.94130
H          3.23380       -1.81910       -2.23400
H          3.96560       -3.16750        0.39830
H          3.76910       -3.91660       -1.30180
H          5.77020        0.40260       -2.82030
H          6.19380       -0.92130       -4.78460
H          6.78410       -2.94050       -5.83420
H          6.47220       -4.36820       -4.80070
H          8.17260       -3.79650       -5.06250
H          7.72090       -4.10440       -2.31780
H          7.30470       -2.76810       -0.30830
H          7.50100        1.35850        1.97580
H          8.39630        3.60940        2.15030
H          8.60600        5.85020        1.37130
H          7.21200        6.40310        0.38460
H          8.76500        5.94610       -0.42180
H          6.61580        4.63120       -1.63360
H          5.70610        2.36690       -1.82160
H          4.11220       -1.30800        1.93860
H          4.62300       -2.44760        4.05700
H          6.18190       -3.20450        5.71480
H          7.66370       -2.18720        5.77640
H          7.72560       -3.82220        5.01520
H          8.84160       -1.98510        3.29820
H          8.33470       -0.86290        1.17930
