48

N         -1.43420       -0.15790       -0.13560
C         -0.74210        0.96700       -0.44840
C          0.64480        0.97910       -0.48310
C          1.40550       -0.15330       -0.13080
N          2.86100       -0.14730       -0.19770
C          3.63670        0.97220       -0.73100
C          3.68670       -1.28380        0.19540
C          0.65830       -1.30570        0.22910
C         -0.74700       -1.28520        0.17350
Pt        -3.47560       -0.20170       -0.28210
Br        -3.23010       -2.37210       -1.67400
C         -3.67950        1.59990        0.87340
C         -2.90900        2.68730        1.02990
P         -5.90960       -0.14580       -0.47300
C         -7.35270       -1.19070       -0.78360
C         -6.68240        1.12780        0.61560
C         -5.95060        0.78850       -2.18570
C         -5.30520       -0.02510       -3.33240
C         -7.40250        1.12100       -2.62920
C         -5.20610        2.14730       -2.14700
H         -1.25670        1.79100       -0.86180
H          1.06450        1.90960       -0.82290
H          3.06090        1.84660       -1.05530
H          4.20050        0.63210       -1.62590
H          4.35950        1.33140        0.03110
H          3.14250       -2.13990        0.61290
H          4.41560       -0.96570        0.97090
H          4.25040       -1.65200       -0.68880
H          1.10850       -2.23090        0.54620
H         -1.28500       -2.19630        0.44260
H         -4.57540        1.77250        1.38520
H         -2.03120        2.93990        0.48860
H         -3.28520        3.52110        1.61730
H         -7.44480       -1.84810        0.10820
H         -7.14750       -1.84320       -1.65930
H         -8.30020       -0.63340       -0.88210
H         -6.58380        0.82310        1.67810
H         -7.73450        1.30480        0.36900
H         -6.25340        2.12810        0.44680
H         -5.80490       -0.99970       -3.48060
H         -4.22120       -0.16240       -3.15980
H         -5.39860        0.54200       -4.29330
H         -8.00150        0.21800       -2.85340
H         -7.41990        1.70970       -3.57470
H         -7.92820        1.73460       -1.86860
H         -4.13080        2.04180       -1.90490
H         -5.66940        2.87670       -1.45390
H         -5.26410        2.65600       -3.14120
