46

N         -0.67900        1.19300        0.00100
C          0.52600        1.07850        0.65600
C          1.04170        2.16800        1.54480
C          1.23380       -0.13470        0.66230
C          0.74310       -1.23670       -0.03220
C          1.47470       -2.55120       -0.02680
C         -0.44070       -1.09980       -0.74910
C         -1.14720        0.11820       -0.73310
C         -2.28890        0.26420       -1.71150
Pt        -1.69140        3.03290        0.00550
Br         0.39940        4.18570       -0.99840
C         -3.42690        2.07580        0.83880
C         -3.55370        0.78580        1.17480
N         -2.70380        4.87270        0.01000
C         -4.02190        5.14920        0.17390
N         -4.29680        6.46840        0.03460
C         -5.59570        7.11050        0.04730
C         -6.78280        6.34920        0.16390
C         -8.03550        6.97080        0.12680
C         -8.13040        8.35340       -0.02360
C         -6.97230        9.12160       -0.13330
C         -5.71550        8.50980       -0.10010
C         -3.10120        7.05320       -0.18390
C         -2.13710        6.07880       -0.21190
H          0.32670        3.01010        1.61760
H          2.03500        2.51840        1.19990
H          1.15630        1.75230        2.57330
H          2.15070       -0.22680        1.23420
H          2.39420       -2.50920        0.59590
H          1.76440       -2.83220       -1.06110
H          0.81470       -3.34290        0.38870
H         -0.79110       -1.93670       -1.34280
H         -2.41300       -0.65620       -2.32490
H         -2.03000        1.07730       -2.42380
H         -3.26730        0.48550       -1.27040
H         -4.29260        2.64850        1.09350
H         -2.77390        0.05600        1.06440
H         -4.48140        0.43240        1.61340
H         -4.79000        4.42470        0.32000
H         -6.76540        5.27800        0.26930
H         -8.93620        6.37560        0.20590
H         -9.10260        8.82990       -0.05860
H         -7.04700       10.19510       -0.25190
H         -4.84810        9.14350       -0.19840
H         -2.92280        8.10840       -0.34670
H         -1.09010        6.26850       -0.38580
