62

P          0.95030       -0.00610        0.08660
C         -0.10000        1.54430        0.20870
C         -1.60540        1.57670       -0.07640
C         -1.94080        3.01200        0.34600
C         -1.20500        3.16330        1.66960
C          0.08270        2.35080        1.51050
C          0.45560       -0.52050       -1.66040
C          0.86950        0.38970       -2.80040
C          0.53670       -0.49560       -4.01480
C          1.14470       -1.82700       -3.63380
C          0.99500       -1.86900       -2.11170
C          0.38350       -0.85770        1.71620
C         -1.14360       -1.01350        1.86660
C         -1.32880       -2.07710        2.92310
C         -0.33800       -3.10750        2.46280
C          0.89400       -2.27110        2.11830
Pt         3.41030       -0.00610        0.08660
Br         3.41030       -2.59060       -0.08120
C          3.41030        2.13940        0.22580
C          3.42700        2.84760       -0.89950
N          5.51030       -0.00610        0.08660
C          5.56850       -0.43730        1.48530
N          6.21100       -0.96830       -0.59450
C          7.32910       -0.47990       -1.00680
C          7.43250        0.86570       -0.66690
C          6.26160        1.18130       -0.01480
H          0.30270        2.20860       -0.59480
H         -2.20710        0.91050        0.54460
H         -1.87180        1.37600       -1.13060
H         -3.03040        3.22730        0.43610
H         -1.49290        3.72080       -0.38290
H         -1.82530        2.64470        2.43780
H         -1.04980        4.20590        2.02300
H          0.15810        1.75350        2.43280
H          1.00290        2.97040        1.45040
H         -0.65710       -0.59410       -1.69000
H          1.96830        0.57120       -2.76370
H          0.33030        1.35940       -2.82780
H          0.90300       -0.12480       -4.99330
H         -0.56570       -0.63870       -4.06910
H          2.23780       -1.75430       -3.87850
H          0.77170       -2.72230       -4.17490
H          2.02160       -1.82970       -1.84440
H          0.49270       -2.75580       -1.66870
H          0.72130       -0.23540        2.56890
H         -1.56110       -1.40690        0.91050
H         -1.66430       -0.10440        2.20420
H         -2.36960       -2.47160        2.99020
H         -1.02830       -1.68180        3.92070
H         -0.73240       -3.55310        1.52170
H         -0.14170       -3.93270        3.18250
H          1.43970       -2.85350        1.39180
H          1.50210       -2.15690        3.04810
H          3.39890        2.63130        1.19230
H          3.44390        2.32980       -1.85220
H          3.42950        3.93120       -0.87540
H          5.07340       -1.41450        1.63560
H          5.04830        0.29390        2.14090
H          6.61730       -0.55570        1.84740
H          8.07130       -1.05150       -1.54580
H          8.25070        1.54470       -0.86800
H          6.00340        2.14890        0.39400
