17

C          0.93610       -0.07250       -0.02580
O         -0.19190       -0.07230       -0.02610
Pt         3.08610       -0.07250       -0.02580
Br         2.97200       -2.07340        1.44070
C          3.05330        1.58030       -1.26780
C          3.00980        1.41300       -2.58710
N          5.18610       -0.07250       -0.02580
C          6.01480        0.78660       -0.65240
O          7.27490        0.47310       -0.44440
C          7.29500       -0.59480        0.32060
C          5.99520       -0.94830        0.59580
H          3.07390        2.57820       -0.84200
H          2.99130        0.41180       -3.00380
H          2.99410        2.27150       -3.25040
H          5.69960        1.62720       -1.25250
H          8.18750       -1.10180        0.66100
H          5.68440       -1.78930        1.19490
