84

P          0.96770        0.09160        0.02370
C          0.01600       -0.21760        1.63970
C          0.39540        0.69430        2.81680
C         -0.56630        0.24580        3.90560
C         -1.87400        0.23790        3.15000
C         -1.53430       -0.29450        1.73930
C          0.45900        1.88960       -0.27080
C          0.85230        2.54000       -1.59490
C         -0.00990        3.80140       -1.61730
C         -1.36690        3.23240       -1.29650
C         -1.07460        2.13850       -0.26590
C          0.24710       -1.31080       -0.92890
C          0.53640       -1.37890       -2.42100
C         -0.18840       -2.68150       -2.75950
C          0.32410       -3.61920       -1.66970
C          0.54120       -2.72690       -0.42910
Pt         3.42770        0.09160        0.02370
Br         3.42770        0.84600       -2.45400
C          3.42770       -0.53450        2.08050
C          3.83150        0.29200        3.04630
P          5.88770        0.09160        0.02370
C          6.95300       -0.67420       -1.28440
C          7.40670       -0.11120       -2.50250
C          8.00180       -0.90940       -3.49160
C          8.18420       -2.27900       -3.28860
C          7.75970       -2.85030       -2.10390
C          7.14140       -2.07080       -1.12330
C          6.26260        1.86620       -0.43430
C          6.91250        2.61430        0.57180
C          7.32660        3.93370        0.36970
C          7.08050        4.55910       -0.84940
C          6.41740        3.87140       -1.85040
C          6.01740        2.54340       -1.65630
C          6.58000       -0.69530        1.54170
C          5.96220       -1.81290        2.13680
C          6.43660       -2.35610        3.33430
C          7.57900       -1.83040        3.93300
C          8.26530       -0.78920        3.31330
C          7.77780       -0.23120        2.12410
H          0.35770       -1.22260        1.98450
H          0.21490        1.75910        2.56910
H          1.41750        0.59020        3.18270
H         -0.56850        0.91110        4.79880
H         -0.31580       -0.78850        4.23150
H         -2.13920        1.31770        3.04890
H         -2.72290       -0.26200        3.66080
H         -2.14510        0.32040        1.08080
H         -1.85720       -1.34150        1.57000
H          0.91240        2.53580        0.51450
H          0.55430        1.88360       -2.44580
H          1.91680        2.81520       -1.65230
H          0.00380        4.36120       -2.57070
H          0.30080        4.48040       -0.78610
H         -1.70670        2.73270       -2.23610
H         -2.16400        3.95710       -1.01330
H         -1.65170        1.27420       -0.65130
H         -1.38740        2.45150        0.75560
H         -0.85710       -1.16810       -0.85860
H          1.62590       -1.49390       -2.60830
H          0.14320       -0.51220       -2.99430
H         -0.03150       -3.06260       -3.79110
H         -1.28480       -2.52740       -2.62040
H          1.32800       -3.95950       -2.00660
H         -0.30640       -4.52000       -1.50370
H          1.60100       -2.83420       -0.11150
H         -0.13480       -2.97820        0.41620
H          3.04990       -1.52020        2.33420
H          4.17100        1.29220        2.80500
H          3.79570       -0.03090        4.08260
H          7.29110        0.90390       -2.78100
H          8.30730       -0.46950       -4.43220
H          8.62530       -2.89100       -4.06020
H          7.87080       -3.91700       -1.94350
H          6.78240       -2.58780       -0.25330
H          7.10900        2.20490        1.54130
H          7.84560        4.46320        1.15770
H          7.41410        5.57600       -1.00840
H          6.22560        4.35220       -2.79860
H          5.55780        2.09010       -2.49330
H          5.09410       -2.26730        1.68590
H          5.91610       -3.18440        3.79920
H          7.94450       -2.24640        4.86450
H          9.17440       -0.40480        3.75810
H          8.35660        0.55560        1.67590
