117

P          0.98430       -0.02880        0.09450
C         -0.13190       -1.59980       -0.26790
C          0.21300       -2.87680        0.56240
C         -0.71230       -3.92040       -0.00750
C         -2.01740       -3.16910        0.01700
C         -1.68480       -1.72310       -0.44140
C          0.23080        0.15440        1.84570
C          0.54230        1.42780        2.58750
C         -0.40260        1.45020        3.75560
C         -1.70470        1.16740        3.08660
C         -1.32500        0.22080        1.93150
C          0.15270        1.06390       -1.20170
C          0.11820        2.58660       -0.99100
C         -0.48780        3.06470       -2.31260
C          0.20590        2.21020       -3.36650
C          0.56120        0.88250       -2.66750
Pt         3.44430       -0.02880        0.09450
Br         3.57620        2.21610       -1.03880
C          2.87800       -1.78970       -0.37300
C          2.38660       -1.99730       -1.62440
C          5.59430       -0.02880        0.09450
N          6.43200       -1.10120        0.22530
C          6.24430       -2.51500        0.67380
C          5.45050       -3.55810        0.00820
C          4.76690       -3.57290       -1.36420
C          5.10220       -2.36640       -2.28330
C          4.80380       -4.83970       -2.23150
C          5.20680       -4.77880        0.69420
C          5.82130       -5.13160        1.85600
C          6.72540       -4.29520        2.40220
C          6.96850       -3.01390        1.88060
C          7.95430       -2.29200        2.79920
C          9.41560       -2.31630        2.21490
C          7.24010       -1.06230        3.40090
C          7.75300       -0.57510        0.17450
C          7.70960        0.87750       -0.09170
N          6.36480        1.26080        0.18360
C          6.15980        2.66000        0.76010
C          7.06630        3.79090        0.35200
C          8.40380        3.75580       -0.48190
C          8.20140        3.87170       -1.97870
C          9.50430        4.74030        0.01690
C          6.76380        5.10590        0.77970
C          5.74210        5.41360        1.61430
C          4.98430        4.42460        2.14700
C          5.17710        3.07440        1.83710
C          4.35750        2.14000        2.78770
C          3.39540        2.76550        3.83990
C          3.52010        1.27680        2.01300
H          0.11360       -1.86630       -1.30530
H          0.00750       -2.71600        1.63980
H          1.19420       -3.34110        0.48300
H         -0.70590       -4.86620        0.58210
H         -0.40380       -4.15710       -1.05310
H         -2.29000       -3.13250        1.09740
H         -2.84280       -3.67340       -0.52470
H         -2.38220       -1.07650        0.09530
H         -1.94300       -1.58380       -1.51530
H          0.56350       -0.68220        2.50130
H          0.40570        2.31470        1.93220
H          1.47450        1.36520        3.06500
H         -0.36640        2.40540        4.32460
H         -0.14650        0.60750        4.43740
H         -2.04670        2.13450        2.64860
H         -2.48330        0.80240        3.79000
H         -1.75250        0.71230        1.03220
H         -1.74480       -0.78910        2.12080
H         -0.93150        0.81450       -1.16680
H          1.11460        3.02710       -0.86690
H         -0.51280        2.90520       -0.13180
H         -0.41060        4.15950       -2.50630
H         -1.56480        2.79190       -2.31590
H          1.16300        2.71170       -3.63450
H         -0.39190        2.10280       -4.29940
H          1.65470        0.77350       -2.77590
H          0.04060        0.00180       -3.10350
H          2.98670       -2.49570        0.43070
H          2.34430       -1.19930       -2.34660
H          2.00580       -2.96320       -1.94520
H          3.74580       -3.76680       -1.06920
H          6.16500       -2.38000       -2.58090
H          4.89620       -1.37890       -1.84470
H          4.47560       -2.40310       -3.20260
H          5.77550       -4.98580       -2.71790
H          3.99930       -4.73160       -3.00370
H          4.49820       -5.76170       -1.69790
H          4.51920       -5.52320        0.33670
H          5.61950       -6.08700        2.32230
H          7.22290       -4.66650        3.29450
H          8.16640       -2.85810        3.73570
H          9.59040       -2.02550        1.16370
H          9.76600       -3.37120        2.18480
H         10.12100       -1.74170        2.84870
H          6.85600       -0.30920        2.69310
H          7.85320       -0.56360        4.17410
H          6.32190       -1.44800        3.90450
H          8.40970       -1.11190       -0.57360
H          8.19630       -0.60080        1.13960
H          7.93390        1.08340       -1.15570
H          8.38820        1.31500        0.67230
H          8.99100        2.86590       -0.32150
H          7.76100        4.85850       -2.23230
H          7.53910        3.05620       -2.34160
H          9.18260        3.76830       -2.48680
H          9.28340        5.80660       -0.21350
H         10.47620        4.53400       -0.49130
H          9.67370        4.63170        1.09290
H          7.34400        5.96520        0.49060
H          5.56210        6.44120        1.91370
H          4.27060        4.78610        2.86290
H          5.09420        1.51930        3.34520
H          2.57880        3.33210        3.32160
H          3.90500        3.43020        4.55310
H          2.92410        1.96960        4.45850
H          2.76350        1.84120        1.42990
H          3.18320        0.33740        2.49370
H          4.25300        0.99750        1.42260
