36

C          0.90100       -0.64300       -0.00200
N         -0.25120       -0.97690       -0.61540
C         -1.06930        0.05890       -0.36200
C         -0.39420        0.97180        0.41480
O          0.82120        0.51890        0.60680
Pt         2.65840       -1.88140       -0.01350
Br         1.45300       -3.57770       -1.55550
C          3.65910       -0.47330        1.26650
C          4.43010       -0.89530        2.27080
N          4.37500       -3.09110       -0.02470
C          4.22920       -4.43920       -0.21720
C          5.31810       -5.31050       -0.16480
C          6.60280       -4.81890        0.01120
C          6.79860       -3.43840        0.07630
C          8.09860       -2.91590        0.09010
C          8.31620       -1.52910        0.01550
C          7.22440       -0.65280       -0.12540
C          7.35090        0.83500       -0.26100
O          6.33690        1.52070       -0.34640
C          8.64730        1.59770       -0.23790
C          5.95740       -1.20610       -0.15310
C          5.66720       -2.58470        0.04490
H         -2.08810        0.13980       -0.71640
H         -0.78090        1.90320        0.80590
H          3.27510        0.52940        1.42500
H          4.58450       -1.95520        2.44110
H          4.66480       -0.18640        3.06630
H          3.26480       -4.89180       -0.30570
H          5.15810       -6.37970       -0.26430
H          7.44870       -5.49370        0.02350
H          8.96690       -3.56460        0.11510
H          9.33060       -1.16890        0.00430
H          9.54130        0.95510       -0.17200
H          8.64950        2.28050        0.63870
H          8.72840        2.21330       -1.15900
H          5.15350       -0.54070       -0.40010
