45

N         -0.32800       -1.08200        0.00300
C         -0.61800       -0.13550       -0.90470
N         -0.04040        1.04670       -0.57790
C         -0.12850        2.30130       -1.30060
C         -0.95790        2.43240       -2.43660
C         -1.02210        3.63990       -3.13810
C         -0.25710        4.73510       -2.72430
C          0.55930        4.62810       -1.60260
C          0.62640        3.42630       -0.89220
C          0.63620        0.81180        0.57340
C          0.44090       -0.50010        0.93630
Pt        -0.93010       -3.09380        0.01630
Br        -2.74020       -2.54040        1.78420
C          0.57260       -3.55320       -1.45120
C          1.29200       -2.64920       -2.11800
N         -1.53210       -5.10560        0.02970
C         -0.61380       -6.13840       -0.01300
N          0.75640       -5.90110        0.37670
C          1.07590       -4.80000        1.28380
C          1.83500       -6.85020        0.15310
C         -1.09040       -7.46410       -0.12080
C         -2.45800       -7.71350       -0.16790
C         -3.35530       -6.65920       -0.04370
C         -2.87050       -5.35970        0.09500
H         -1.24460       -0.31420       -1.76490
H         -1.56520        1.61320       -2.78800
H         -1.66210        3.72800       -4.00610
H         -0.30960        5.66560       -3.27190
H          1.14620        5.47840       -1.27920
H          1.27390        3.38850       -0.03100
H          1.23850        1.52430        1.11830
H          0.85920       -1.00740        1.79380
H          0.78900       -4.58820       -1.67440
H          1.18570       -1.58930       -1.96610
H          2.04070       -2.98320       -2.82980
H          0.19290       -4.19360        1.56480
H          1.85840       -4.14360        0.85340
H          1.46440       -5.20810        2.24440
H          1.55220       -7.68560       -0.50820
H          2.17420       -7.26650        1.13030
H          2.69360       -6.32840       -0.31880
H         -0.43580       -8.32080       -0.09530
H         -2.82440       -8.72820       -0.24930
H         -4.42160       -6.84540       -0.06850
H         -3.57980       -4.54760        0.13210
