54

P          1.07230        0.01330        0.06770
C          0.30310       -0.95860       -1.27470
C         -1.07630       -1.14930       -1.46330
C         -1.53920       -1.88160       -2.57240
C         -0.63700       -2.44580       -3.48230
C          0.73060       -2.25730       -3.30730
C          1.19280       -1.50840       -2.22380
C          0.53170       -1.19110        1.36540
C          0.77520       -2.58450        1.40420
C          0.33420       -3.37020        2.48080
C         -0.39830       -2.79790        3.51760
C         -0.69630       -1.43920        3.47810
C         -0.23320       -0.64760        2.41980
C          0.26640        1.66230       -0.05210
C         -0.61600        1.97680       -1.11000
C         -1.34800        3.16710       -1.11200
C         -1.19760        4.08400       -0.07570
C         -0.30050        3.81690        0.95980
C          0.42210        2.61250        0.97830
Pt         3.53230        0.01330        0.06770
Br         3.59780       -2.48130        0.00000
C          3.44250        2.08290        0.18630
C          3.54010        2.84450       -0.90220
N          5.63230        0.01330        0.06770
C          6.24380        1.28400       -0.38090
C          5.96190       -0.07600        1.50910
C          6.27150       -1.18140       -0.53580
H         -1.78810       -0.70820       -0.78210
H         -2.59970       -2.01180       -2.73590
H         -0.99350       -3.02040       -4.32970
H          1.43380       -2.68300       -4.01620
H          2.25980       -1.35660       -2.13610
H          1.27910       -3.10610        0.62490
H          0.55240       -4.43130        2.50940
H         -0.74650       -3.40920        4.34280
H         -1.28410       -0.99720        4.27310
H         -0.48040        0.40370        2.43210
H         -0.78630        1.30680       -1.93260
H         -2.04850        3.36880       -1.91350
H         -1.78170        4.99720       -0.07580
H         -0.18800        4.53720        1.76050
H          1.07740        2.41800        1.81530
H          3.29980        2.54970        1.15710
H          3.64630        2.37880       -1.87260
H          3.47080        3.92550       -0.82540
H          6.01070        2.14730        0.27690
H          5.90340        1.50570       -1.41350
H          7.35390        1.20540       -0.42280
H          5.52980        0.78210        2.06830
H          7.06510       -0.09050        1.68270
H          5.52230       -0.99120        1.96090
H          5.88250       -1.31780       -1.56820
H          6.13700       -2.11630        0.04310
H          7.37420       -1.06450       -0.60580
