13
 
P 1.1536 -0.0996 0.0876
F -0.3576 -0.6376 0.5365
F 0.8460 1.5068 0.4708
F 0.9542 -0.5469 -1.5249
Ag 3.5402 -0.0208 0.0546
N 5.5453 -0.0119 0.0961
C 6.3870 1.0323 0.0997
O 7.6391 0.6232 0.0970
C 7.6258 -0.6944 0.0962
C 6.3144 -1.1093 0.1022
H 6.0773 2.0677 0.0936
H 8.5011 -1.3305 0.0845
H 5.9460 -2.1274 0.1002
