48
 
P 1.2634 -0.6881 -0.6372
F -0.3440 -0.9418 -0.2649
F 0.9424 0.6617 -1.5889
F 1.3991 -2.1493 -1.4488
Ag 3.6282 -0.4029 -0.4362
P 5.9639 -0.0273 -0.0444
C 6.6307 1.1335 1.2498
C 6.2143 2.5930 0.9856
C 6.1976 3.2533 2.3355
C 5.5687 2.2111 3.2299
C 5.8913 0.8558 2.5779
C 6.5702 -1.7272 0.4150
C 6.0325 -2.3766 1.6820
C 6.4936 -3.8259 1.5085
C 6.2206 -4.1343 0.0408
C 6.2540 -2.7717 -0.6721
C 6.5700 0.5053 -1.7122
C 6.0361 1.8355 -2.1989
C 6.9981 2.2335 -3.2973
C 8.3625 1.8169 -2.7490
C 8.0964 0.6602 -1.7719
H 7.7304 1.1006 1.4089
H 5.1729 2.6180 0.5870
H 6.9221 3.1638 0.3479
H 5.6565 4.2292 2.3312
H 7.2477 3.4114 2.6493
H 4.4620 2.3502 3.1977
H 5.9167 2.3168 4.2774
H 4.8934 0.4010 2.3685
H 6.4414 0.1644 3.2415
H 7.6802 -1.6962 0.5061
H 4.9239 -2.3300 1.6867
H 6.4517 -1.9420 2.6114
H 6.0287 -4.5554 2.2083
H 7.5970 -3.8645 1.6569
H 5.1901 -4.5420 -0.0594
H 6.9296 -4.8904 -0.3670
H 5.2334 -2.6012 -1.0821
H 6.9795 -2.7409 -1.5146
H 6.2911 -0.2619 -2.4765
H 6.1824 2.5838 -1.4444
H 4.9637 1.8194 -2.4853
H 6.9441 3.3235 -3.5241
H 6.7718 1.6489 -4.2110
H 8.7656 2.6586 -2.1392
H 9.0946 1.5920 -3.5529
H 8.4882 0.9850 -0.7861
H 8.6113 -0.2878 -2.0436
