37
 
P 1.0934 -0.2837 -0.1649
F -0.1936 -0.6465 -1.1463
F 0.8185 -1.4853 0.9749
F 0.6093 1.2967 0.1952
Ag 3.4449 -0.1293 0.0461
P 5.7659 0.1448 -0.1457
N 6.7900 1.3933 -0.8453
C 6.2306 1.6078 -2.2009
C 6.5176 2.6588 -0.1016
O 6.2092 -1.2060 -1.0452
C 6.2965 -2.4296 -0.4287
C 5.4830 -3.4568 -0.9159
C 5.4686 -4.7234 -0.3212
C 6.2998 -5.0064 0.7590
C 7.1622 -4.0231 1.2405
C 7.1669 -2.7208 0.6706
C 8.1000 -1.7170 1.2335
C 9.4476 -2.1080 1.4660
C 10.3767 -1.1897 1.9563
C 9.9688 0.1038 2.2672
C 8.6408 0.4872 2.0900
C 7.6964 -0.3839 1.5555
O 6.4336 0.1087 1.3836
H 6.3443 0.6943 -2.8150
H 6.7505 2.4392 -2.7183
H 5.1330 1.8636 -2.1923
H 6.8038 2.5830 0.9666
H 5.4430 2.9858 -0.1286
H 7.0914 3.5012 -0.5426
H 4.8340 -3.2561 -1.7529
H 4.8020 -5.4873 -0.6963
H 6.2728 -5.9886 1.2232
H 7.7980 -4.2785 2.0868
H 9.8027 -3.1105 1.2319
H 11.4155 -1.4739 2.0923
H 10.6816 0.8221 2.6433
H 8.3368 1.4877 2.3440
