19
 
P 1.2393 -0.3171 -0.0624
F -0.2414 -0.9193 0.4032
F 0.8092 1.2938 0.1539
F 1.1031 -0.9169 -1.6341
Ag 3.6336 -0.1367 -0.0190
N 5.6403 -0.0312 0.0165
C 6.3073 1.1513 0.0120
N 7.6607 1.1640 -0.1278
C 8.3753 0.0071 -0.2364
O 9.7153 0.0325 -0.4495
C 10.4313 1.1952 -0.6609
C 7.7072 -1.2179 -0.1531
C 6.3176 -1.2081 -0.0354
H 5.7646 2.0823 0.0787
H 11.5062 0.9596 -0.8104
H 10.3332 1.8613 0.2201
H 10.0603 1.7212 -1.5690
H 8.2390 -2.1600 -0.2178
H 5.7683 -2.1413 -0.0174
