68
 
P 0.9033 0.0185 -0.0175
C 0.1838 -0.2600 -1.6552
C -1.1696 -0.4761 -1.9509
C -1.5396 -0.8597 -3.2575
C -0.5709 -1.0156 -4.2603
F -0.9246 -1.4326 -5.5031
C 0.7678 -0.7598 -3.9756
C 1.1377 -0.3850 -2.6841
C 0.5556 -1.4754 0.9696
C 1.0254 -2.7269 0.5283
C 0.7558 -3.8937 1.2596
C 0.0124 -3.8275 2.4391
F -0.2479 -4.9594 3.1437
C -0.4645 -2.5937 2.8891
C -0.1963 -1.4208 2.1605
C 0.4668 1.6896 0.5422
C -0.3411 2.5541 -0.2220
C -0.6415 3.8418 0.2466
C -0.1473 4.2759 1.4795
F -0.4237 5.5287 1.9222
C 0.6292 3.4155 2.2576
C 0.9326 2.1297 1.7932
Ag 3.3633 0.0185 -0.0175
C 5.5133 0.0185 -0.0175
N 6.2629 0.0077 1.0934
C 5.7532 0.0081 2.4660
C 4.1835 -0.0976 2.4323
C 6.3560 -1.1892 3.2277
C 6.2123 1.3120 3.1683
C 7.5471 0.0345 0.6729
C 7.5488 0.0480 -0.7042
N 6.2653 0.0300 -1.1327
C 5.7442 -0.0125 -2.5091
C 6.9032 0.0379 -3.5324
C 4.9625 -1.3232 -2.7165
C 4.7757 1.1611 -2.7022
H -1.9233 -0.3970 -1.1827
H -2.5740 -1.0680 -3.4944
H 1.5241 -0.8797 -4.7451
H 2.1869 -0.2244 -2.4723
H 1.5996 -2.8055 -0.3846
H 1.1207 -4.8532 0.9122
H -1.0452 -2.5528 3.8035
H -0.5848 -0.4813 2.5277
H -0.7423 2.2474 -1.1769
H -1.2561 4.5075 -0.3468
H 0.9983 3.7473 3.2206
H 1.5307 1.4785 2.4151
H 3.8296 -0.9966 1.9126
H 3.7197 0.7180 1.8782
H 3.8142 -0.0824 3.4830
H 6.0703 -2.1409 2.7364
H 6.0107 -1.2019 4.2835
H 7.4695 -1.1307 3.2421
H 5.8240 2.2068 2.6388
H 7.3254 1.3933 3.1864
H 5.8640 1.3462 4.2226
H 8.4221 0.0402 1.3097
H 8.4295 0.0565 -1.3322
H 7.5749 -0.8394 -3.3891
H 7.5074 0.9609 -3.3989
H 6.5293 0.0084 -4.5766
H 5.6230 -2.2009 -2.5556
H 4.5501 -1.3757 -3.7481
H 4.1177 -1.3921 -1.9980
H 5.3221 2.1216 -2.5497
H 3.9201 1.0283 -1.9591
H 4.3796 1.1678 -3.7429
