48
 
P 0.9209 -0.0511 -0.0337
C 0.2135 0.6207 -1.5621
C -1.1507 0.7413 -1.8562
C -1.5555 1.2142 -3.1159
C -0.6075 1.5886 -4.0772
Cl -1.1160 2.1002 -5.6781
C 0.7499 1.5419 -3.7649
C 1.1562 1.0669 -2.5160
C 0.4535 -1.7703 -0.3243
C 1.4125 -2.7765 -0.4669
C 1.0105 -4.1166 -0.5816
C -0.3482 -4.4577 -0.5418
Cl -0.8496 -6.1318 -0.7017
C -1.3076 -3.4624 -0.3580
C -0.9096 -2.1300 -0.2451
C 0.4050 0.7647 1.4949
C -0.3500 0.0131 2.4212
C -0.8345 0.5968 3.5941
C -0.5639 1.9383 3.8629
Cl -1.2109 2.6851 5.3144
C 0.2145 2.6842 2.9676
C 0.7016 2.1002 1.7859
Ag 3.3809 -0.0511 -0.0337
N 5.4809 -0.0511 -0.0337
C 5.9326 -0.6071 1.2519
C 5.9646 -0.7902 -1.2029
C 5.9267 1.3523 -0.0234
H -1.9005 0.4673 -1.1360
H -2.6079 1.2756 -3.3538
H 1.4906 1.8533 -4.4952
H 2.2209 1.0311 -2.3057
H 2.4646 -2.5268 -0.4645
H 1.7541 -4.8936 -0.6886
H -2.3595 -3.7198 -0.2873
H -1.6745 -1.3914 -0.0561
H -0.5840 -1.0277 2.2397
H -1.4296 0.0089 4.2857
H 0.4294 3.7211 3.1847
H 1.2921 2.6898 1.1006
H 5.5735 -1.6549 1.3424
H 5.5180 -0.0416 2.1138
H 7.0455 -0.6295 1.3091
H 5.5838 -1.8335 -1.1685
H 7.0758 -0.8092 -1.2351
H 5.5755 -0.3236 -2.1330
H 5.5159 1.9083 0.8465
H 5.5631 1.8619 -0.9416
H 7.0397 1.4176 -0.0221
