46
 
P 0.9271 -0.0487 -0.0481
C 0.2446 1.4669 -0.8035
C -1.0967 1.7015 -1.1600
C -1.4244 2.8259 -1.9501
C -0.4327 3.7233 -2.3677
F -0.7446 4.7746 -3.1698
C 0.8870 3.5231 -1.9766
C 1.2194 2.4047 -1.2085
C 0.6364 -1.4527 -1.1693
C 1.7494 -2.1604 -1.6527
C 1.5467 -3.2725 -2.5086
C 0.2499 -3.6818 -2.8639
F 0.0610 -4.7636 -3.6683
C -0.8549 -2.9815 -2.3800
C -0.6680 -1.8697 -1.5414
C 0.3774 0.0223 1.6904
C -0.9991 -0.0590 1.9933
C -1.4464 -0.0503 3.3225
C -0.5276 0.0151 4.3699
F -0.9645 0.0474 5.6557
C 0.8417 0.0316 4.0895
C 1.2956 0.0309 2.7576
Ag 3.3871 -0.0487 -0.0481
O 5.4371 -0.0487 -0.0481
C 5.8275 1.1747 -0.5769
C 5.3493 1.2212 -2.0379
C 5.2543 2.3070 0.2338
H -1.8794 1.0107 -0.8940
H -2.4435 2.9923 -2.2736
H 1.6601 4.2145 -2.2981
H 2.2609 2.2507 -0.9657
H 2.7611 -1.8315 -1.3271
H 2.3849 -3.8368 -2.8958
H -1.8560 -3.3102 -2.6538
H -1.5509 -1.3566 -1.1849
H -1.7367 -0.1444 1.2078
H -2.5070 -0.0987 3.5434
H 1.5489 0.0423 4.9102
H 2.3600 0.0200 2.5687
H 6.9405 1.2177 -0.5925
H 4.2411 1.1647 -2.0901
H 5.7599 0.3574 -2.6093
H 5.6862 2.1521 -2.5410
H 4.1336 2.1445 0.2945
H 5.5771 3.2690 -0.2413
H 5.6967 2.2744 1.2504
