63
 
P 0.9168 0.0266 0.0487
C 0.2802 -1.6388 -0.3124
C 1.1017 -2.7751 -0.0411
C 2.3922 -2.7040 0.7420
C 0.7307 -4.0368 -0.5371
C -0.4272 -4.1883 -1.2954
C -1.2461 -3.0862 -1.5434
C -0.8964 -1.8167 -1.0593
C 0.3733 0.1096 1.8237
C 1.1791 0.4395 2.9757
C 2.6600 0.6912 2.9938
C 0.5658 0.5737 4.2418
C -0.7953 0.3659 4.4114
C -1.5870 0.0767 3.3102
C -1.0179 -0.0212 2.0363
C 0.5369 1.2678 -1.2712
C 0.9859 1.2240 -2.6288
C 1.9258 0.1970 -3.1769
C 0.5753 2.2234 -3.5394
C -0.2202 3.2873 -3.1287
C -0.6322 3.3653 -1.8042
C -0.2701 2.3649 -0.8910
Ag 3.3768 0.0266 0.0487
N 5.4768 0.0266 0.0487
C 6.3115 0.8747 -0.5648
N 7.6002 0.5665 -0.2849
C 8.7882 1.2565 -0.7325
C 8.6974 2.4047 -1.5468
C 9.8522 3.0492 -1.9968
C 11.1108 2.5643 -1.6392
C 11.2177 1.4424 -0.8182
C 10.0690 0.7938 -0.3653
C 7.5458 -0.5299 0.5103
C 6.2292 -0.8521 0.7218
H 2.6140 -1.7066 1.1242
H 3.2477 -3.0519 0.1239
H 2.3073 -3.3486 1.6403
H 1.3581 -4.9045 -0.3585
H -0.6819 -5.1619 -1.7000
H -2.1382 -3.2166 -2.1419
H -1.5255 -0.9725 -1.3028
H 3.1649 0.4029 2.0703
H 3.1044 0.0824 3.8110
H 2.8726 1.7603 3.2364
H 1.1517 0.8320 5.1197
H -1.2355 0.4410 5.3999
H -2.6517 -0.0623 3.4462
H -1.6843 -0.2014 1.2050
H 2.3832 -0.4156 -2.3804
H 2.7540 0.7306 -3.6993
H 1.4061 -0.4345 -3.9283
H 0.8982 2.1975 -4.5754
H -0.5034 4.0598 -3.8371
H -1.2379 4.2068 -1.4887
H -0.6248 2.4621 0.1257
H 5.9713 1.7017 -1.1708
H 7.7428 2.8114 -1.8459
H 9.7690 3.9240 -2.6281
H 12.0037 3.0584 -1.9962
H 12.1920 1.0676 -0.5334
H 10.1987 -0.0716 0.2660
H 8.3850 -1.0681 0.9247
H 5.8414 -1.6695 1.3152
