72
 
P 1.0892 0.0294 0.0343
C 0.3950 -1.4971 -0.7292
C -0.9703 -1.8168 -0.8590
C -1.3749 -3.0404 -1.4089
C -0.4303 -3.9739 -1.8363
Cl -0.9474 -5.5275 -2.4729
C 0.9261 -3.6706 -1.7433
C 1.3336 -2.4409 -1.2047
C 0.5937 -0.3368 1.7786
C -0.1177 -1.4860 2.2159
C -0.6508 -1.5506 3.5161
C -0.4779 -0.4898 4.4062
Cl -1.2134 -0.5387 6.0033
C 0.2570 0.6260 4.0107
C 0.7853 0.7015 2.7138
C 0.1223 1.3437 -0.8603
C -1.2936 1.4141 -0.7182
C -2.0698 2.2683 -1.5132
C -1.4519 3.1169 -2.4243
Cl -2.4232 4.0516 -3.5546
C -0.0572 3.1988 -2.4485
C 0.7286 2.3281 -1.6653
Ag 3.5492 0.0294 0.0343
C 5.6992 0.0294 0.0343
N 6.4599 0.5831 -0.9310
C 5.9267 1.2368 -2.1334
C 5.0465 0.2632 -2.9282
C 5.0516 2.4141 -1.7224
C 7.7362 0.3557 -0.5355
C 7.7190 -0.3196 0.6680
C 8.9085 -0.6921 1.3139
C 10.1280 -0.3524 0.7042
C 10.1465 0.3384 -0.5241
C 8.9430 0.7000 -1.1622
N 6.4332 -0.5279 1.0476
C 5.9517 -1.1806 2.3057
C 5.3861 -2.5298 1.9636
C 6.2403 -3.6229 2.1569
C 6.0104 -4.8032 1.4731
C 4.8698 -4.9461 0.6886
C 3.9012 -3.9372 0.6718
C 4.1588 -2.7053 1.2938
H -1.7400 -1.1624 -0.5290
H -2.4289 -3.2702 -1.4874
H 1.6625 -4.3953 -2.0767
H 2.3959 -2.2424 -1.1380
H -0.3268 -2.3225 1.5727
H -1.2326 -2.4119 3.8257
H 0.3859 1.4531 4.6995
H 1.3037 1.6063 2.4287
H -1.8330 0.7996 -0.0164
H -3.1549 2.2465 -1.4475
H 0.4133 3.9118 -3.1126
H 1.8015 2.4056 -1.7295
H 6.7610 1.5870 -2.7804
H 4.1850 -0.0657 -2.3005
H 5.6289 -0.6229 -3.2502
H 4.6367 0.7683 -3.8302
H 4.1748 1.9870 -1.1307
H 4.6844 2.9415 -2.6320
H 5.6704 3.1448 -1.1508
H 8.9222 -1.2284 2.2517
H 11.0622 -0.6238 1.1824
H 11.0993 0.5898 -0.9750
H 8.9745 1.2285 -2.1045
H 5.2862 -0.5346 2.9123
H 6.8398 -1.3522 2.9507
H 7.1444 -3.5328 2.7460
H 6.7584 -5.5798 1.5171
H 4.7430 -5.8424 0.0990
H 2.9930 -4.1008 0.1148
H 3.4408 -1.9050 1.1936
