59
 
P 0.9401 -0.0617 0.0511
C 0.0935 0.2664 -1.5670
C 0.8404 0.4719 -2.7911
C 2.3211 0.2972 -2.9750
C 0.1864 0.8826 -3.9609
C -1.1822 1.0741 -3.9742
C -1.9258 0.8328 -2.8203
C -1.3001 0.4257 -1.6296
C 0.4248 -1.7961 0.5619
C 0.8090 -2.9845 -0.1261
C 1.6150 -2.9832 -1.3738
C 0.4283 -4.2568 0.3543
C -0.3448 -4.3939 1.4985
C -0.7577 -3.2578 2.1807
C -0.3840 -1.9778 1.7239
C 0.5456 1.4794 1.0314
C 0.9128 1.6187 2.4102
C 1.6274 0.5563 3.1918
C 0.5670 2.7840 3.1283
C -0.1554 3.8065 2.5324
C -0.5466 3.6847 1.2076
C -0.1964 2.5498 0.4640
Ag 3.4001 -0.0617 0.0511
N 5.5001 -0.0617 0.0511
C 6.1862 1.0249 -0.3859
O 5.5183 2.1458 -0.7382
C 4.1398 2.2294 -0.7123
C 7.5858 0.9683 -0.4716
C 8.2502 -0.2022 -0.0851
C 7.5185 -1.2928 0.3857
C 6.1289 -1.2022 0.4410
H 2.8055 -0.1266 -2.0896
H 2.7737 1.2700 -3.2767
H 2.5346 -0.4176 -3.7983
H 0.7506 1.0653 -4.8741
H -1.6582 1.4085 -4.8885
H -2.9931 0.9887 -2.8497
H -1.8979 0.2860 -0.7428
H 1.8370 -1.9732 -1.7054
H 1.0243 -3.4825 -2.1693
H 2.5674 -3.5274 -1.2096
H 0.7331 -5.1580 -0.1671
H -0.6276 -5.3841 1.8484
H -1.3681 -3.3834 3.0703
H -0.7394 -1.1371 2.3031
H 1.2717 -0.4432 2.9210
H 1.3633 0.6447 4.2722
H 2.7235 0.6306 3.0577
H 0.8504 2.9025 4.1691
H -0.4202 4.6885 3.1062
H -1.1302 4.4782 0.7566
H -0.5370 2.5415 -0.5529
H 3.8304 3.2287 -1.0764
H 3.7140 2.0063 0.2778
H 3.7580 1.5151 -1.3964
H 8.1546 1.8125 -0.8385
H 9.3291 -0.2679 -0.1487
H 8.0183 -2.2038 0.6915
H 5.5429 -2.0452 0.7835
