62
 
P 1.0488 -0.0550 0.0677
C 0.3154 1.2939 1.0424
C -1.0407 1.6515 1.1089
C -1.4429 2.7125 1.9477
C -0.5073 3.4026 2.7307
F -0.9005 4.4196 3.5403
C 0.8351 3.0389 2.6837
C 1.2409 1.9999 1.8438
C 0.5844 0.3983 -1.6098
C 0.9963 1.5778 -2.2157
C 0.5943 1.8634 -3.5281
C -0.2145 0.9677 -4.2414
F -0.6069 1.2607 -5.5065
C -0.6142 -0.2302 -3.6503
C -0.2158 -0.5174 -2.3406
C 0.5611 -1.5653 0.9207
C -0.8019 -1.9007 0.9848
C -1.2172 -3.0840 1.6004
C -0.2727 -3.9496 2.1538
F -0.6821 -5.0963 2.7546
C 1.0920 -3.6332 2.0810
C 1.5136 -2.4390 1.4621
Ag 3.5088 -0.0550 0.0677
P 5.9688 -0.0550 0.0677
C 6.8547 0.9026 1.3341
C 6.4574 -1.7545 0.4154
C 5.4984 -2.7714 0.5015
C 5.9004 -4.1039 0.6931
C 7.2599 -4.4220 0.7939
C 8.2200 -3.4156 0.6756
C 7.8220 -2.0899 0.4771
C 6.4343 0.8626 -1.4167
C 5.4687 1.2999 -2.3371
C 5.8748 1.8475 -3.5684
C 7.2359 1.9659 -3.8772
C 8.1965 1.5450 -2.9576
C 7.7990 0.9922 -1.7374
H -1.7822 1.1298 0.5258
H -2.4830 3.0037 2.0011
H 1.5623 3.5586 3.3005
H 2.2924 1.7331 1.8374
H 1.6244 2.2637 -1.6705
H 0.9108 2.7835 -3.9927
H -1.2318 -0.9314 -4.2067
H -0.5388 -1.4605 -1.9084
H -1.5470 -1.2541 0.5425
H -2.2722 -3.3307 1.6421
H 1.8144 -4.3200 2.5040
H 2.5692 -2.1821 1.3938
H 6.5242 0.5166 2.3249
H 6.4908 1.9541 1.2783
H 7.9523 0.8670 1.2583
H 4.4508 -2.5285 0.3901
H 5.1642 -4.8954 0.7541
H 7.5729 -5.4483 0.9480
H 9.2735 -3.6638 0.7278
H 8.5834 -1.3314 0.3586
H 4.4117 1.1752 -2.1213
H 5.1401 2.1593 -4.2997
H 7.5504 2.3695 -4.8334
H 9.2501 1.6219 -3.2008
H 8.5631 0.6329 -1.0622
