81
 
P 0.9099 0.0120 0.0418
C 0.1551 -0.8813 1.6258
C -1.3817 -0.9529 1.7011
C 0.6034 -2.3655 1.8454
C 0.6816 -0.1828 2.9035
C 0.4295 1.9636 0.2002
C 1.1241 2.6346 1.4003
C 0.7959 2.9729 -0.9532
C -1.1061 2.1950 0.2770
C 0.4159 -1.0008 -1.4711
C 0.9409 -0.5518 -2.9070
C 2.4634 -0.6064 -2.8712
C 0.4545 -1.4998 -4.0169
C 0.4987 0.8418 -3.3828
Ag 3.3699 0.0120 0.0418
P 5.8299 0.0120 0.0418
C 6.5333 0.1221 1.7113
C 5.6185 0.2178 2.7947
C 6.0800 0.4020 4.1082
C 7.4503 0.4855 4.3534
C 8.3559 0.3574 3.2936
C 7.9011 0.1736 1.9776
C 6.1886 -1.6133 -0.6738
C 5.1298 -2.4387 -1.0728
C 5.3796 -3.6666 -1.7014
C 6.6929 -4.0799 -1.9390
C 7.7583 -3.2632 -1.5526
C 7.5110 -2.0326 -0.9238
C 6.3890 1.5940 -0.7312
C 5.9968 1.6667 -2.1984
C 4.6495 1.7944 -2.5415
C 4.2479 1.8225 -3.8833
C 5.1896 1.7203 -4.9044
C 6.5448 1.6322 -4.5853
C 6.9530 1.6126 -3.2403
H -1.7936 -1.6069 0.9127
H -1.8947 -0.0111 1.6662
H -1.6919 -1.3398 2.7009
H 0.3260 -3.0388 1.0148
H 0.0648 -2.7790 2.7440
H 1.6732 -2.4902 2.1197
H 0.1082 0.7160 3.1107
H 1.7862 -0.0150 2.8431
H 0.4914 -0.7551 3.8371
H 2.2147 2.4416 1.3544
H 0.7269 2.3942 2.3702
H 0.9526 3.7340 1.4129
H 1.8791 3.0731 -1.1625
H 0.4774 4.0114 -0.6796
H 0.1447 2.9256 -1.8461
H -1.5712 1.8364 1.1810
H -1.6194 1.8095 -0.6374
H -1.3592 3.2759 0.3575
H -0.6938 -1.0343 -1.5069
H 0.7849 -2.0321 -1.3052
H 2.8060 -1.6184 -2.6236
H 2.8212 0.0759 -2.0953
H 2.8778 -0.3392 -3.8634
H 0.7594 -2.5371 -3.7962
H 0.9144 -1.2071 -4.9949
H -0.6472 -1.4391 -4.1512
H 1.0992 1.5395 -2.8344
H -0.6058 1.0003 -3.3285
H 0.8054 1.0754 -4.4287
H 4.5414 0.1714 2.6271
H 5.3835 0.4966 4.9380
H 7.8107 0.6522 5.3637
H 9.4156 0.4180 3.4925
H 8.6087 0.0972 1.1706
H 4.1117 -2.1208 -0.9096
H 4.5560 -4.2959 -2.0141
H 6.8849 -5.0281 -2.4294
H 8.7743 -3.5837 -1.7531
H 8.3538 -1.4103 -0.6573
H 7.4981 1.6040 -0.6655
H 5.9984 2.4721 -0.1778
H 3.9150 1.8686 -1.7546
H 3.2002 1.9067 -4.1359
H 4.8661 1.7172 -5.9399
H 7.2732 1.5742 -5.3857
H 8.0106 1.5399 -3.0246
