87
 
P 1.0144 -0.0699 -0.0700
C 0.2509 0.7926 1.3232
C -1.1129 1.0501 1.4965
C -1.5570 1.6960 2.6669
C -0.6472 2.0740 3.6745
C -1.0998 2.7873 4.9184
C 0.7094 1.7868 3.5100
C 1.1503 1.1587 2.3463
C 0.5269 0.9931 -1.4363
C 0.9148 2.3221 -1.5364
C 0.4324 3.1108 -2.5894
C -0.4398 2.5730 -3.5545
C -1.0408 3.4423 -4.6211
C -0.7781 1.2170 -3.4931
C -0.2977 0.4313 -2.4416
C 0.5343 -1.7822 0.0999
C -0.8241 -2.1296 0.0719
C -1.2175 -3.4534 0.2661
C -0.2521 -4.4471 0.4829
C -0.6672 -5.8588 0.7794
C 1.1121 -4.1034 0.4535
C 1.5036 -2.7694 0.2649
Ag 3.4744 -0.0699 -0.0700
P 5.9344 -0.0699 -0.0700
C 6.6891 1.5349 0.4500
C 5.8622 2.6954 0.7379
C 4.3478 2.7419 0.6991
C 6.4577 3.8966 1.1595
C 7.8293 3.9824 1.3312
C 8.6297 2.8685 1.0854
C 8.0686 1.6583 0.6514
C 6.3684 -1.2152 1.3027
C 6.0116 -1.0089 2.6724
C 5.2210 0.1512 3.1912
C 6.4346 -1.9231 3.6521
C 7.2158 -3.0213 3.3187
C 7.5775 -3.2348 1.9933
C 7.1560 -2.3475 0.9942
C 6.4909 -0.6546 -1.6962
C 5.7284 -1.5848 -2.4313
C 4.4610 -2.1899 -1.8789
C 6.1762 -1.9890 -3.7074
C 7.3927 -1.5291 -4.2216
C 8.1798 -0.6640 -3.4687
C 7.7297 -0.2197 -2.2224
H -1.8266 0.7612 0.7421
H -2.6113 1.8995 2.7916
H -2.1912 2.9860 4.8996
H -0.5720 3.7631 4.9923
H -0.8619 2.1880 5.8236
H 1.4265 2.0510 4.2820
H 2.2083 0.9404 2.2576
H 1.5677 2.7438 -0.7897
H 0.7215 4.1493 -2.6364
H -0.7251 4.4997 -4.5005
H -2.1486 3.4098 -4.5206
H -0.7625 3.0918 -5.6361
H -1.4351 0.7797 -4.2416
H -0.5985 -0.6119 -2.4104
H -1.5839 -1.3768 -0.0860
H -2.2743 -3.6951 0.2646
H -1.7735 -5.9589 0.8326
H -0.2575 -6.1443 1.7723
H -0.2788 -6.5566 0.0107
H 1.8656 -4.8652 0.6043
H 2.5500 -2.4834 0.2703
H 3.9079 1.7698 0.8540
H 3.9641 3.3104 -0.1725
H 3.9718 3.2658 1.6106
H 5.8497 4.7704 1.3889
H 8.2652 4.9133 1.6762
H 9.6944 2.9449 1.2436
H 8.7139 0.8109 0.4939
H 4.9932 0.8809 2.4254
H 5.8075 0.6722 3.9789
H 4.2657 -0.2073 3.6265
H 6.1721 -1.7690 4.6930
H 7.5462 -3.7002 4.0960
H 8.1948 -4.0897 1.7460
H 7.4706 -2.5484 -0.0206
H 4.2242 -1.9000 -0.8276
H 4.5913 -3.2936 -1.8968
H 3.5934 -1.9072 -2.5016
H 5.5949 -2.6822 -4.3012
H 7.7377 -1.8582 -5.1959
H 9.1398 -0.3356 -3.8549
H 8.3737 0.4509 -1.6797
