52
 
P 0.9908 -0.0989 0.0117
C 0.4977 -1.7912 -0.3325
C -0.8477 -2.1545 -0.1277
C -1.2703 -3.4667 -0.3415
C -0.3557 -4.4236 -0.7803
C 0.9845 -4.0673 -0.9922
C 1.4192 -2.7515 -0.7554
C 0.7484 0.5008 1.7130
C 1.8581 0.9289 2.4550
C 1.7382 1.1889 3.8280
C 0.5107 1.0222 4.4737
C -0.6152 0.6516 3.7370
C -0.5059 0.4049 2.3586
C 0.1933 0.7904 -1.4092
C 0.5572 2.3087 -1.4396
C 2.0791 2.5654 -1.5998
C 2.6509 1.8612 -2.8454
C 2.2755 0.3737 -2.8795
C 0.7424 0.1909 -2.7426
Ag 3.4508 -0.0989 0.0117
N 5.5508 -0.0989 0.0117
C 6.1931 1.0994 -0.0006
C 7.5852 1.1490 -0.1041
C 8.3043 -0.0445 -0.1963
F 9.6543 -0.0162 -0.3199
C 7.6263 -1.2665 -0.1745
C 6.2314 -1.2731 -0.0707
H -1.5744 -1.4308 0.2140
H -2.3055 -3.7398 -0.1651
H -0.6883 -5.4405 -0.9510
H 1.6830 -4.8176 -1.3336
H 2.4603 -2.4685 -0.8993
H 2.8247 1.0258 1.9791
H 2.6055 1.4861 4.4025
H 0.4340 1.1740 5.5454
H -1.5645 0.5243 4.2470
H -1.3935 0.0870 1.8330
H -0.9080 0.6772 -1.3591
H 0.1941 2.8217 -0.5251
H 0.0340 2.7798 -2.3063
H 2.6145 2.2059 -0.6856
H 2.2652 3.6622 -1.7060
H 3.7599 1.9750 -2.8636
H 2.2495 2.3387 -3.7650
H 2.7990 -0.1704 -2.0728
H 2.6346 -0.0707 -3.8330
H 0.5032 -0.8881 -2.8132
H 0.2571 0.6914 -3.6093
H 5.6172 2.0143 0.0477
H 8.0976 2.1023 -0.1285
H 8.1741 -2.1966 -0.2537
H 5.6888 -2.2089 -0.0780
