58
 
P 0.9914 0.0369 -0.0925
C 0.2227 1.7353 -0.2507
C -1.3073 1.8107 -0.2529
C 0.7463 2.5478 0.9684
C 0.7286 2.4104 -1.5355
C 0.5791 -0.7457 -1.6979
C 1.5937 -1.2280 -2.5383
C 1.2827 -1.8827 -3.7402
C -0.0477 -2.0698 -4.1197
C -1.0708 -1.6377 -3.2797
C -0.7630 -0.9998 -2.0710
C 0.5215 -0.7742 1.4567
C -0.8396 -0.9801 1.7484
C -1.2350 -1.5865 2.9427
C -0.2735 -2.0211 3.8531
C 1.0874 -1.8541 3.5625
C 1.4899 -1.2262 2.3658
Ag 3.4514 0.0369 -0.0925
C 5.6014 0.0369 -0.0925
N 6.3549 0.7302 -0.9411
C 5.8301 1.5943 -1.9843
C 4.2749 1.6186 -1.9383
C 7.6364 0.4459 -0.6185
C 7.6227 -0.4357 0.4525
N 6.3368 -0.6815 0.7685
C 5.8180 -1.5449 1.8260
C 4.8888 -2.5915 1.2298
H -1.7500 1.4342 0.6855
H -1.7295 1.3070 -1.1313
H -1.6235 2.8723 -0.3458
H 0.4051 2.1026 1.9297
H 0.3952 3.6026 0.9473
H 1.8602 2.5724 0.9985
H 0.3689 1.8640 -2.4299
H 1.8278 2.4456 -1.5646
H 0.3673 3.4597 -1.5983
H 2.6261 -1.1307 -2.2552
H 2.0732 -2.2571 -4.3768
H -0.2870 -2.5706 -5.0514
H -2.1040 -1.8129 -3.5605
H -1.5906 -0.7384 -1.4350
H -1.6075 -0.6767 1.0570
H -2.2890 -1.7221 3.1590
H -0.5888 -2.4932 4.7776
H 1.8208 -2.2137 4.2729
H 2.5450 -1.0940 2.1343
H 6.1905 1.2302 -2.9737
H 6.2372 2.6178 -1.8290
H 3.8330 0.6387 -2.1055
H 3.9445 2.3233 -2.7318
H 3.8981 1.9381 -0.9602
H 8.5143 0.8411 -1.1121
H 8.4781 -0.8615 0.9625
H 5.2383 -0.9392 2.5561
H 6.6588 -2.0372 2.3620
H 4.0115 -2.0497 0.7715
H 4.5391 -3.2809 2.0292
H 5.4440 -3.1955 0.4750
