65
 
P 0.9304 0.0343 -0.0631
C 0.3394 -0.0689 -1.9184
C 1.0116 -1.2851 -2.6363
C 0.4910 -2.6354 -2.1147
C -1.0480 -2.7194 -2.1267
C -1.7328 -1.4285 -1.6256
C -1.1740 -0.2051 -2.2971
C 0.5846 -1.5048 1.1385
C 1.1020 -1.1950 2.5409
C 0.3195 -0.0070 3.1279
C -1.1983 -0.2797 3.2166
C -1.7831 -0.9460 1.9614
C -0.8726 -2.0710 1.4437
C 0.4007 1.8017 0.3172
C 1.2300 2.8360 0.8956
C 2.6735 2.6789 1.2736
C 0.6578 4.0675 1.2992
C -0.7093 4.2859 1.2204
C -1.5291 3.2895 0.7217
C -0.9828 2.0876 0.2658
Ag 3.3904 0.0343 -0.0631
C 5.5404 0.0343 -0.0631
N 6.2976 -0.7611 0.7042
C 5.8087 -1.7386 1.6631
C 7.5781 -0.4520 0.4145
C 7.5713 0.5455 -0.5466
N 6.2870 0.8373 -0.8348
C 5.7787 1.8043 -1.7969
H 0.7216 0.8336 -2.4404
H 2.1171 -1.2382 -2.5431
H 0.7788 -1.2490 -3.7260
H 0.8572 -2.7638 -1.1087
H 0.9242 -3.4905 -2.6781
H -1.3693 -3.6041 -1.5278
H -1.3944 -2.8750 -3.1657
H -1.5200 -1.1675 -0.6295
H -2.8346 -1.5260 -1.6823
H -1.7597 0.6897 -2.0426
H -1.3215 -0.3470 -3.3948
H 1.1747 -2.3803 0.8223
H 2.1906 -1.0169 2.4724
H 0.9554 -2.0807 3.2098
H 0.4937 0.8604 2.5052
H 0.7124 0.2757 4.1204
H -1.7352 0.6800 3.4016
H -1.3747 -0.9548 4.0733
H -1.8655 -0.2042 1.1844
H -2.8258 -1.2928 2.1464
H -1.3372 -2.6576 0.6298
H -0.8443 -2.8848 2.2050
H 2.9265 1.6228 1.4593
H 2.8412 3.1535 2.2737
H 3.3313 3.2219 0.5663
H 1.2643 4.8513 1.7440
H -1.1360 5.2156 1.5826
H -2.6022 3.4392 0.7093
H -1.6856 1.3684 -0.0798
H 4.6917 -1.7431 1.6607
H 6.1722 -1.4713 2.6782
H 6.1842 -2.7483 1.3950
H 8.4486 -0.9117 0.8642
H 8.4344 1.0165 -0.9994
H 6.6172 2.3214 -2.3100
H 5.1449 2.5541 -1.2794
H 5.1641 1.2765 -2.5572
