57
 
P 1.0251 0.0178 0.0951
C 0.1171 -1.5446 0.2540
C 0.5306 0.9063 1.5961
C 0.5296 0.5871 -1.5535
Ag 3.4851 0.0178 0.0951
P 5.9451 0.0178 0.0951
C 6.7859 0.1958 1.7851
C 5.9883 0.3991 2.9743
C 4.5201 0.6226 2.9834
C 6.5547 0.4238 4.2582
C 7.9143 0.2959 4.4304
C 8.7299 0.1367 3.3124
C 8.1813 0.0719 2.0060
C 6.4364 -1.7244 -0.3015
C 6.0847 -2.8685 0.4745
C 5.1569 -2.8260 1.6412
C 6.6113 -4.1360 0.1518
C 7.4493 -4.3063 -0.9429
C 7.7641 -3.2129 -1.7433
C 7.2675 -1.9359 -1.4277
C 6.0713 1.5111 -1.1287
C 7.2506 2.1619 -1.6954
C 8.6609 2.0407 -1.2116
C 7.1331 3.0610 -2.7945
C 5.9017 3.4299 -3.3025
C 4.7579 2.9546 -2.6864
C 4.8381 2.0144 -1.6363
H -0.9788 -1.4448 0.2439
H 0.4624 -2.0307 1.1959
H 0.4623 -2.2101 -0.5710
H -0.5812 0.9535 1.6181
H 0.9095 1.9480 1.5286
H 0.9071 0.4161 2.5122
H -0.5820 0.6290 -1.5845
H 0.9056 -0.0774 -2.3524
H 0.9087 1.6211 -1.6970
H 4.1666 0.6984 1.9874
H 4.3060 1.5951 3.4770
H 3.9995 -0.1950 3.5244
H 5.9279 0.5551 5.1396
H 8.3207 0.3283 5.4387
H 9.7948 0.0483 3.4808
H 8.8629 -0.0943 1.1926
H 4.6577 -1.8490 1.7302
H 5.7260 -3.0733 2.5599
H 4.3589 -3.5895 1.4979
H 6.3638 -5.0059 0.7515
H 7.8456 -5.2915 -1.1703
H 8.4094 -3.3624 -2.6015
H 7.5561 -1.1094 -2.0632
H 8.7379 1.4125 -0.3264
H 8.9883 3.0688 -0.9053
H 9.3564 1.7227 -2.0172
H 8.0097 3.4981 -3.2737
H 5.8372 4.1114 -4.1523
H 3.8001 3.3030 -3.0567
H 3.8992 1.6711 -1.2472
