84
 
P 1.0694 0.0476 0.0540
C -0.0058 1.5994 0.1663
C 0.1605 2.5734 1.4176
C 1.5542 3.2369 1.5665
C 1.9872 3.9247 0.2688
C 1.8512 2.9440 -0.8986
C 0.3839 2.4518 -1.0483
C 0.6285 -0.8172 -1.6016
C 1.3218 -2.1825 -1.8378
C 0.6559 -3.3249 -1.0547
C -0.8093 -3.5017 -1.4718
C -1.5780 -2.2023 -1.2166
C -0.8972 -1.0140 -1.9368
C 0.5584 -1.0174 1.5295
C 1.4093 -1.9903 2.1484
C 2.8109 -2.2543 1.7482
C 0.9363 -2.8314 3.1731
C -0.3678 -2.7503 3.6244
C -1.2223 -1.8092 3.0670
C -0.7736 -0.9535 2.0389
Ag 3.5294 0.0476 0.0540
P 5.9894 0.0476 0.0540
O 7.2082 1.0989 -0.5450
C 6.7500 2.4716 -0.4424
C 7.6304 3.4000 -1.2803
C 5.2676 2.7898 -0.8277
O 6.2297 0.7770 1.5845
C 5.9231 -0.0572 2.6817
C 6.5048 -1.4887 2.6307
C 6.4978 0.6332 3.9249
O 6.6001 -1.4597 -0.4740
C 6.0687 -1.7999 -1.7455
C 6.5152 -0.8340 -2.8615
C 6.5785 -3.2009 -2.1015
H -1.0702 1.3031 0.1191
H -0.1124 2.1041 2.3846
H -0.5509 3.4244 1.2736
H 2.2965 2.4610 1.8390
H 1.5564 4.0049 2.3811
H 3.0410 4.2623 0.3758
H 1.3762 4.8333 0.0671
H 2.5265 2.0822 -0.6861
H 2.1872 3.4310 -1.8343
H 0.2738 1.8453 -1.9604
H -0.3116 3.3115 -1.1667
H 1.0278 -0.1389 -2.3813
H 2.4013 -2.1130 -1.6010
H 1.2327 -2.4551 -2.9188
H 0.6926 -3.1052 0.0150
H 1.2053 -4.2719 -1.2308
H -1.2770 -4.3298 -0.8922
H -0.8637 -3.7778 -2.5498
H -1.6315 -2.0300 -0.1306
H -2.6241 -2.3320 -1.5827
H -1.4767 -0.0810 -1.7910
H -0.9735 -1.2607 -3.0227
H 3.1179 -1.6254 0.9524
H 2.8850 -3.2899 1.3672
H 3.4799 -2.1088 2.6212
H 1.5875 -3.5802 3.6134
H -0.7088 -3.4298 4.4010
H -2.2433 -1.7654 3.4310
H -1.5038 -0.2676 1.6406
H 6.8933 2.7945 0.6066
H 7.5236 3.1807 -2.3650
H 8.6899 3.3051 -0.9753
H 7.3195 4.4577 -1.1101
H 5.0807 2.6906 -1.9210
H 5.0831 3.8633 -0.5849
H 4.5134 2.1845 -0.2430
H 4.8214 -0.0944 2.7862
H 7.6106 -1.4725 2.5138
H 6.0530 -2.0835 1.8156
H 6.2547 -2.0278 3.5696
H 7.6103 0.6744 3.8754
H 6.2060 0.0872 4.8466
H 6.1186 1.6744 3.9957
H 4.9556 -1.8569 -1.7079
H 7.6226 -0.7469 -2.8729
H 6.0707 0.1722 -2.7252
H 6.1725 -1.2016 -3.8528
H 7.6900 -3.2082 -2.1453
H 6.1857 -3.5208 -3.0918
H 6.2490 -3.9401 -1.3421
