43
 
P 1.2750 0.0000 0.0000
N 0.3880 -0.5068 -1.4435
C -1.0496 -0.4982 -1.3319
C -1.4539 0.0060 0.0415
C -2.9803 0.0268 0.0965
C -0.8621 -1.0048 1.1141
N 0.6115 -1.2146 1.0567
N 0.6070 1.6051 0.0531
C -0.8671 1.4728 0.2183
Ag 3.7350 0.0003 -0.0005
C 5.8850 0.0006 -0.0009
N 6.7892 -0.5181 0.9000
C 6.5611 -1.2358 2.1498
C 8.0341 -0.2311 0.4092
C 9.3891 -0.5680 1.0080
C 7.8912 0.4472 -0.7730
C 9.0200 0.9561 -1.6423
N 6.5694 0.5849 -1.0269
C 6.0031 1.2487 -2.1954
H 0.7360 -1.4565 -1.7162
H -1.4399 -1.5255 -1.5190
H -1.4402 0.1580 -2.1398
H -3.3769 -0.9963 -0.0888
H -3.3736 0.6949 -0.7021
H -3.3284 0.3859 1.0825
H -1.3488 -1.9988 0.9908
H -1.1271 -0.6400 2.1275
H 0.8705 -2.1633 0.7028
H 0.8683 2.1141 -0.8217
H -1.3515 2.1543 -0.5170
H -1.1402 1.8420 1.2280
H 5.4815 -1.3580 2.3571
H 7.0413 -0.6794 2.9863
H 7.0457 -2.2366 2.0929
H 9.3436 -1.1188 1.9661
H 9.9678 0.3690 1.1767
H 9.9759 -1.1804 0.2858
H 10.0214 0.7237 -1.2211
H 8.9540 2.0592 -1.7398
H 8.9683 0.4876 -2.6461
H 6.8077 1.6315 -2.8621
H 5.3877 2.1117 -1.8753
H 5.3982 0.5276 -2.7786
