53
 
P 0.9931 0.0425 0.0903
C 0.5355 -1.6040 0.7794
C -0.6619 -1.7596 1.5194
C -1.0369 -2.9788 2.0774
C -0.2306 -4.0927 1.9015
C 0.9585 -3.9763 1.1752
C 1.3481 -2.7397 0.6245
C 0.4862 1.6624 0.8481
C 1.3024 2.8134 0.8154
C 0.9022 4.0010 1.4615
C -0.2997 4.0581 2.1697
C -1.1191 2.9412 2.2128
C -0.7394 1.7726 1.5520
C 0.2983 0.0187 -1.5987
C 0.6761 1.3357 -2.3221
C 2.2139 1.5195 -2.4373
C 2.8442 0.3687 -3.2123
C 2.5093 -0.9585 -2.5436
C 0.9670 -1.1416 -2.3997
Ag 3.4531 0.0425 0.0903
N 5.5531 0.0425 0.0903
C 5.4940 0.3859 1.5090
N 6.3505 1.0215 -0.4489
C 7.5715 0.6100 -0.4945
C 7.6241 -0.7545 -0.2284
C 6.3139 -1.1375 0.0085
H -1.3461 -0.9736 1.6939
H -1.9604 -3.0531 2.6445
H -0.5331 -5.0408 2.3300
H 1.5773 -4.8517 1.0445
H 2.2759 -2.6788 0.0777
H 2.2473 2.8145 0.3012
H 1.5273 4.8827 1.4287
H -0.6019 4.9631 2.6855
H -2.0546 2.9740 2.7633
H -1.4384 0.9833 1.6319
H -0.8049 -0.1000 -1.5559
H 0.2341 2.2005 -1.7875
H 0.2418 1.3268 -3.3458
H 2.6986 1.5424 -1.4435
H 2.4422 2.4796 -2.9442
H 3.9486 0.5006 -3.2436
H 2.4552 0.3693 -4.2524
H 3.0219 -0.9814 -1.5771
H 2.9379 -1.7898 -3.1417
H 0.7531 -2.1215 -1.9279
H 0.5281 -1.1770 -3.4199
H 4.9917 1.3783 1.5970
H 6.4690 0.4528 2.0427
H 4.7295 -0.2749 1.9925
H 8.4154 1.2495 -0.7217
H 8.4952 -1.3963 -0.2399
H 5.9594 -2.1371 0.2206
