51
 
P 1.2750 0.0000 -0.0000
O 0.4445 -0.6308 1.3743
C -0.9489 -0.5919 1.2814
C -1.3971 0.0165 -0.0340
C -2.9251 0.0385 -0.0812
C -0.7794 1.4671 -0.0875
O 0.6289 1.5562 0.1664
O 0.6272 -1.1386 -1.0729
C -0.7800 -0.8821 -1.1742
Ag 3.7350 0.0003 -0.0005
P 6.1950 0.0007 -0.0009
N 7.1759 1.3366 -0.6374
C 6.5959 1.6412 -1.9681
C 6.8888 2.5542 0.1819
O 6.5305 -1.2121 -1.0633
C 6.5988 -2.4478 -0.5267
C 5.7697 -3.4257 -1.0836
C 5.7493 -4.7200 -0.5705
C 6.5829 -5.0628 0.4910
C 7.4422 -4.1108 1.0447
C 7.4600 -2.7807 0.5692
C 8.4018 -1.8079 1.2312
C 9.7390 -2.2136 1.4291
C 10.6737 -1.3513 2.0079
C 10.2854 -0.0868 2.4435
C 8.9650 0.3231 2.3014
C 8.0238 -0.5043 1.6864
O 6.7789 -0.0120 1.5409
H -1.3258 0.0026 2.1420
H -1.3274 -1.6328 1.3854
H -3.3176 0.6325 0.7743
H -3.3177 -0.9982 0.0186
H -3.2815 0.4785 -1.0310
H -1.2757 2.0757 0.7001
H -1.0089 1.9319 -1.0686
H -1.2764 -1.8760 -1.1295
H -1.0108 -0.4343 -2.1637
H 6.7416 0.7953 -2.6651
H 7.0644 2.5429 -2.4205
H 5.4918 1.8487 -1.9157
H 7.1945 2.4381 1.2383
H 5.8039 2.8441 0.1880
H 7.4405 3.4385 -0.2104
H 5.1175 -3.1672 -1.9081
H 5.0817 -5.4571 -0.9964
H 6.5601 -6.0697 0.8886
H 8.0726 -4.4110 1.8737
H 10.0750 -3.1897 1.0991
H 11.7044 -1.6619 2.1158
H 11.0071 0.5839 2.8886
H 8.6720 1.3058 2.6450
