60
 
P 1.2750 0.0000 -0.0000
O 0.4341 -0.6913 1.3407
C -0.9604 -0.6171 1.2589
C -1.4013 0.0217 -0.0437
C -2.9319 0.0499 -0.0988
C -0.7782 1.4698 -0.0593
O 0.6242 1.5463 0.2316
O 0.6295 -1.0961 -1.1188
C -0.7819 -0.8527 -1.2015
Ag 3.7350 0.0003 -0.0005
C 5.8850 0.0006 -0.0009
N 6.7474 1.0840 -0.0419
C 6.2249 2.4303 -0.1511
C 6.7283 3.8274 -0.6701
C 5.3931 4.6297 -0.9167
C 4.5411 4.7285 0.3659
C 4.2638 3.3397 0.9711
C 5.5696 2.6684 1.2114
C 8.0112 0.6172 -0.0042
C 7.9486 -0.7696 -0.0440
N 6.6441 -1.1300 -0.1323
C 5.9738 -2.4144 -0.1604
C 6.0072 -2.8698 1.3027
C 4.6296 -3.3326 1.6523
C 4.2957 -4.5560 0.8028
C 4.4363 -4.2560 -0.7064
C 5.8659 -3.6846 -1.0652
H -1.3283 -0.0330 2.1316
H -1.3576 -1.6523 1.3444
H -3.3308 0.6283 0.7644
H -3.3317 -0.9861 -0.0212
H -3.2844 0.5082 -1.0417
H -1.2889 2.0652 0.7291
H -0.9880 1.9546 -1.0356
H -1.2743 -1.8500 -1.1717
H -1.0180 -0.3885 -2.1809
H 5.6856 2.2003 -1.0952
H 7.2690 3.8140 -1.6457
H 7.3642 4.3836 0.0586
H 4.7750 4.0925 -1.6767
H 5.5723 5.6490 -1.3148
H 3.5714 5.2312 0.1707
H 5.1048 5.3447 1.1036
H 3.6871 2.5999 0.3169
H 3.7565 3.4656 1.9502
H 5.3482 1.7331 1.7626
H 6.2679 3.2430 1.8702
H 8.9021 1.2338 0.0384
H 8.7917 -1.4489 -0.0148
H 5.0899 -1.9993 -0.6931
H 6.2722 -2.0467 2.0033
H 6.7902 -3.6549 1.4524
H 3.9340 -2.4809 1.4464
H 4.5987 -3.5789 2.7324
H 3.2612 -4.8665 1.0528
H 4.9966 -5.3735 1.0695
H 3.6594 -3.4862 -0.9558
H 4.1821 -5.1581 -1.2885
H 5.8681 -3.4934 -2.1655
H 6.6433 -4.4542 -0.8562
