71
 
P 1.0623 0.0754 -0.0208
C 0.3106 -1.6827 -0.1995
C 0.7233 -2.6905 -1.3781
C 2.0376 -3.5022 -1.1825
C 2.1048 -4.1331 0.2128
C 1.8953 -3.0405 1.2556
C 0.4722 -2.4967 1.0844
C 0.3024 0.5337 1.7120
C 0.5654 1.9745 2.1889
C -0.2111 3.0218 1.3482
C -1.7201 2.7735 1.3012
C -2.0132 1.3289 0.9075
C -1.2657 0.3664 1.8362
C 0.7465 1.2562 -1.4208
C -0.3445 1.0837 -2.3700
C -1.3289 -0.0725 -2.4797
C -0.6316 2.1029 -3.2865
C 0.0691 3.2905 -3.3024
C -0.3283 4.3793 -4.2501
C 1.1215 3.4767 -2.4210
C 1.5000 2.4880 -1.4974
C 2.6555 2.8809 -0.5832
Ag 3.5223 0.0754 -0.0208
N 5.6223 0.0754 -0.0208
C 6.2500 1.2757 -0.0728
C 7.6312 1.3441 -0.1527
C 8.3803 0.1607 -0.2585
O 9.7294 0.1874 -0.4196
C 10.4772 1.3474 -0.5175
C 7.7072 -1.0720 -0.2112
C 6.3136 -1.0941 -0.0511
H -0.7442 -1.5158 -0.3254
H 0.7102 -2.2707 -2.4051
H -0.0641 -3.4829 -1.3774
H 2.9139 -2.8426 -1.3244
H 2.1041 -4.3328 -1.9323
H 3.0811 -4.6414 0.3704
H 1.3107 -4.9104 0.3380
H 2.6741 -2.2308 1.1441
H 1.9644 -3.4960 2.2650
H 0.1847 -1.9406 1.9635
H -0.2617 -3.3301 1.0614
H 0.7865 -0.0892 2.4909
H 1.6532 2.1401 2.2338
H 0.2224 2.0801 3.2432
H 0.0993 2.9745 0.3227
H -0.0035 4.0506 1.7005
H -2.1861 3.4563 0.5525
H -2.1700 2.9800 2.2922
H -1.6790 1.1578 -0.1162
H -3.1118 1.1583 0.9376
H -1.6245 -0.6648 1.6578
H -1.5932 0.6113 2.8787
H -1.8122 -0.3815 -1.5531
H -0.9350 -0.8894 -3.1145
H -2.2655 0.2611 -2.9792
H -1.4518 1.9898 -3.9880
H -1.1526 4.0552 -4.9222
H 0.5433 4.6656 -4.8701
H -0.6851 5.2568 -3.6698
H 1.6424 4.4254 -2.4491
H 2.9776 3.9258 -0.7631
H 3.5815 2.3527 -0.7620
H 2.3869 2.8774 0.4720
H 5.6782 2.1886 -0.0186
H 8.0969 2.3190 -0.1552
H 11.5469 1.0992 -0.6594
H 10.3707 1.9449 0.4134
H 10.1364 1.9535 -1.3872
H 8.2514 -2.0026 -0.3187
H 5.7761 -2.0341 -0.0467
