63
 
P 1.0526 -0.0233 -0.0818
C 0.3151 1.1502 1.0882
C -1.0446 1.4661 1.2019
C -1.4721 2.3475 2.2142
C -0.5542 2.9034 3.1161
C 0.7968 2.5832 3.0151
C 1.2271 1.7172 2.0078
C 0.5869 0.6902 -1.6700
C 1.0065 1.9422 -2.0975
C 0.6007 2.4213 -3.3523
C -0.2182 1.6480 -4.1870
C -0.6260 0.3802 -3.7789
C -0.2256 -0.0998 -2.5283
C 0.4701 -1.6954 0.3646
C 0.8357 -2.8264 -0.4230
O 1.6299 -2.6742 -1.5213
C 2.0250 -3.7010 -2.3676
C 0.3161 -4.0978 -0.0859
C -0.5778 -4.2474 0.9650
C -0.9653 -3.1402 1.7095
C -0.4400 -1.8777 1.4232
Ag 3.5126 -0.0233 -0.0818
C 5.6626 -0.0233 -0.0818
N 6.3765 0.9784 -0.4147
C 5.8411 2.2074 -0.9340
C 7.7866 0.6906 -0.2743
C 7.8065 -0.6488 0.4725
N 6.4553 -1.1306 0.3100
C 6.0263 -2.4824 0.5259
C 6.9548 -3.4773 0.9147
C 6.5547 -4.8065 1.0835
C 5.2251 -5.1668 0.8769
C 4.2961 -4.2009 0.4944
C 4.6894 -2.8711 0.3079
H -1.7661 1.0279 0.5306
H -2.5189 2.5958 2.3138
H -0.8868 3.5750 3.9000
H 1.5090 2.9973 3.7230
H 2.2831 1.4687 1.9667
H 1.6446 2.5330 -1.4612
H 0.9227 3.3965 -3.6797
H -0.5331 2.0277 -5.1517
H -1.2512 -0.2255 -4.4314
H -0.5597 -1.0939 -2.2451
H 2.4683 -3.2863 -3.2931
H 1.1550 -4.3203 -2.6786
H 2.7740 -4.3477 -1.8701
H 0.5693 -4.9870 -0.6462
H -0.9840 -5.2267 1.1850
H -1.6856 -3.2623 2.5066
H -0.7843 -1.0488 2.0178
H 4.7258 2.1360 -1.0191
H 6.2840 2.3909 -1.9384
H 6.1250 3.0431 -0.2616
H 8.3539 1.4618 0.2890
H 8.2081 0.5704 -1.2972
H 7.9513 -0.4846 1.5654
H 8.5996 -1.3105 0.0667
H 7.9971 -3.2438 1.0799
H 7.2773 -5.5599 1.3725
H 4.9144 -6.1958 1.0069
H 3.2685 -4.4905 0.3339
H 3.9480 -2.1771 -0.0222
