69
 
P 1.2750 0.0000 0.0000
N 0.4452 1.5352 -0.2370
C 1.0408 2.5189 0.7270
C 2.5893 2.6661 0.5468
C 0.4662 3.9297 0.5505
C -1.0075 1.4094 -0.2381
C -1.4271 -0.0314 0.0183
C -2.9608 -0.0759 0.0171
C -0.8605 -0.9552 -1.1433
N 0.6319 -0.9514 -1.3530
C 1.1659 -2.3697 -1.2747
C 0.6089 -3.3600 -2.3016
C 2.6958 -2.4921 -1.3550
N 0.6537 -0.3714 1.6114
C 1.2363 -1.6674 2.1190
C 2.7893 -1.6994 2.1790
C 0.6917 -2.1152 3.4795
C -0.8457 -0.4618 1.4376
Ag 3.7350 0.0003 -0.0005
N 5.8350 0.0006 -0.0009
C 6.5137 -0.5760 -1.0453
C 5.8007 -1.2042 -2.1834
C 7.9100 -0.5936 -1.0757
C 8.6341 -0.0088 -0.0444
C 10.1344 -0.0222 -0.0756
C 7.9427 0.5873 1.0130
C 6.5331 0.5845 1.0253
C 5.8112 1.2181 2.1728
H 0.8329 2.1917 1.7729
H 2.8384 3.0041 -0.4760
H 3.1780 1.7595 0.7054
H 2.9878 3.3957 1.2859
H 0.7004 4.3014 -0.4677
H 0.9244 4.6094 1.3027
H -0.6239 3.9790 0.7141
H -1.3715 1.7535 -1.2327
H -1.4740 2.0484 0.5352
H -3.3490 0.2589 -0.9712
H -3.3640 0.6115 0.7928
H -3.3224 -1.1020 0.2198
H -1.3229 -0.6652 -2.1109
H -1.2442 -1.9660 -0.8958
H 0.8367 -2.8279 -0.3615
H 0.9258 -3.0910 -3.3254
H -0.4889 -3.4621 -2.2449
H 1.0172 -4.3720 -2.0544
H 3.0335 -2.3010 -2.3885
H 3.0229 -3.5099 -1.0444
H 3.2336 -1.8310 -0.6948
H 0.9079 -2.4899 1.5097
H 3.1648 -0.9974 2.9490
H 3.3235 -1.4968 1.2321
H 3.1194 -2.7295 2.4356
H 0.9959 -1.4242 4.2848
H 1.0944 -3.1341 3.6946
H -0.4101 -2.2313 3.4712
H -1.3013 0.1865 2.2185
H -1.2217 -1.4901 1.6040
H 4.7308 -1.0547 -2.0538
H 6.0577 -2.2865 -2.2331
H 6.0914 -0.7138 -3.1344
H 8.4267 -1.0597 -1.9076
H 10.5171 -0.5368 -0.9846
H 10.5219 -0.5600 0.8141
H 10.5198 1.0183 -0.0796
H 8.5018 1.0461 1.8200
H 6.5236 1.6466 2.9120
H 5.1951 0.4560 2.6902
H 5.1721 2.0432 1.8073
