27
 
C 0.9010 -0.6430 -0.0020
N -0.3537 -1.1121 -0.0161
C -0.7388 -2.5142 -0.0391
C -1.1582 -0.0298 -0.0062
C -0.3566 1.0999 0.0163
N 0.9304 0.6976 0.0191
C 2.1302 1.5224 0.0422
Ag 2.6584 -1.8814 -0.0135
N 4.3750 -3.0911 -0.0247
C 4.2116 -4.4400 -0.0244
F 2.9606 -4.9614 -0.0130
C 5.3267 -5.2812 -0.0293
C 6.6048 -4.7173 -0.0400
F 7.6996 -5.5170 -0.0476
C 6.7507 -3.3269 -0.0428
C 5.6082 -2.5202 -0.0323
F 5.7230 -1.1699 -0.0360
H 0.1760 -3.1558 -0.0417
H -1.3371 -2.7212 -0.9514
H -1.3494 -2.7466 0.8588
H -2.2401 -0.0559 -0.0144
H -0.6875 2.1304 0.0299
H 1.8628 2.6002 0.0586
H 2.7438 1.3134 -0.8594
H 2.7281 1.2838 0.9473
H 5.2010 -6.3565 -0.0250
H 7.7368 -2.8809 -0.0531
