75
 
P 0.9799 0.0744 0.0637
C 0.2715 0.7891 1.6500
C -1.2399 0.9588 1.8067
C 0.8319 0.0555 2.8856
C 0.4537 1.2493 -1.2706
C 0.9589 2.6870 -1.1368
C 0.8652 0.6900 -2.6379
C 0.4879 -1.7266 -0.1226
C 0.9686 -2.6722 0.9767
C -1.0323 -1.9254 -0.3210
Ag 3.4399 0.0744 0.0637
P 5.8999 0.0744 0.0637
C 6.5065 1.0508 1.6548
C 5.9557 0.3823 2.9320
C 8.0040 1.3160 2.0283
C 5.8235 2.4296 1.5774
C 6.3530 -1.8244 0.2783
C 5.7724 -2.5404 -0.9507
C 7.8711 -2.2705 0.3572
C 5.7364 -2.4746 1.5249
C 6.4065 1.0616 -1.4745
C 7.9435 1.1713 -1.9360
C 8.5604 -0.2043 -2.1011
C 8.0674 1.8564 -3.2996
C 8.8528 1.9475 -0.9799
H 0.7129 1.8057 1.7073
H -1.7734 -0.0025 1.8394
H -1.6543 1.6205 1.0240
H -1.4376 1.4416 2.7927
H 0.3292 -0.9035 3.0656
H 0.6383 0.6382 3.8105
H 1.9309 -0.0998 2.8022
H -0.6577 1.2781 -1.2522
H 2.0647 2.7338 -1.2134
H 0.6145 3.1515 -0.1934
H 0.5293 3.2925 -1.9701
H 1.9706 0.6178 -2.7182
H 0.4876 1.3464 -3.4532
H 0.4223 -0.3163 -2.7973
H 0.9737 -2.0606 -1.0625
H 0.3899 -2.5599 1.9035
H 2.0541 -2.5488 1.1573
H 0.7694 -3.7213 0.6672
H -1.6141 -1.6614 0.5767
H -1.2592 -2.9975 -0.5140
H -1.4172 -1.3444 -1.1847
H 6.5924 -0.4589 3.2379
H 4.8887 0.1034 2.8353
H 6.0490 1.0605 3.8116
H 8.6431 0.4135 1.9578
H 8.1036 1.6520 3.0888
H 8.4348 2.2235 1.5651
H 4.7205 2.3113 1.5249
H 6.1658 2.9899 0.6843
H 6.0592 3.0530 2.4699
H 6.1965 -2.1109 -1.8828
H 4.6716 -2.4306 -0.9786
H 6.0282 -3.6250 -0.9470
H 8.3805 -2.4338 -0.6152
H 7.9773 -3.3211 0.7132
H 8.4802 -1.6602 1.0543
H 4.6649 -2.2335 1.6285
H 6.3085 -2.2485 2.4319
H 5.8576 -3.5821 1.4719
H 5.9531 2.0704 -1.4393
H 5.9025 0.5180 -2.3041
H 7.9572 -0.8532 -2.7663
H 8.6232 -0.5577 -1.0943
H 9.6157 -0.1855 -2.4498
H 7.4816 1.3001 -4.0567
H 9.1376 1.8483 -3.6267
H 7.7388 2.9121 -3.2462
H 8.9986 1.3218 -0.1129
H 8.4683 2.9644 -0.7527
H 9.8964 2.0280 -1.3532
