42
 
C 0.9010 -0.6430 -0.0020
N -0.3457 -1.1055 -0.0091
C -0.6922 -2.5236 -0.0064
C 0.6148 -3.3963 0.0175
C -1.6040 -2.8190 1.1969
C -1.1403 -0.0107 -0.0214
C -0.3220 1.1098 -0.0048
N 0.9599 0.6857 0.0098
C 2.1990 1.4608 0.0422
C 2.2052 2.3443 1.2995
C 3.4472 0.5169 -0.0005
Ag 2.6584 -1.8814 -0.0135
N 4.3750 -3.0911 -0.0247
C 4.2100 -4.4354 0.0871
C 5.3194 -5.2690 0.2430
C 6.6050 -4.7100 0.2538
C 7.8130 -5.5670 0.4974
C 6.7509 -3.3275 0.0708
C 5.6112 -2.5263 -0.0550
H -1.2732 -2.7470 -0.9301
H 1.2494 -3.1896 0.8900
H 1.2498 -3.2149 -0.8609
H 0.3121 -4.4636 0.0251
H -1.0821 -2.5919 2.1492
H -1.9267 -3.8806 1.1957
H -2.5267 -2.1946 1.1522
H -2.2228 -0.0157 -0.0331
H -0.6388 2.1452 0.0006
H 2.2178 2.1225 -0.8514
H 2.1812 1.7181 2.2169
H 1.3105 3.0068 1.3135
H 3.1040 2.9938 1.3202
H 3.4993 -0.1607 0.8658
H 4.3612 1.1444 -0.0177
H 3.4487 -0.1146 -0.9031
H 3.2125 -4.8522 0.1161
H 5.1734 -6.3331 0.3817
H 7.5290 -6.6207 0.7076
H 8.3534 -5.1812 1.3894
H 8.4936 -5.5435 -0.3773
H 7.7335 -2.8721 0.0668
H 5.7103 -1.4535 -0.1478
