50
 
C 0.9010 -0.6430 -0.0020
N -0.3875 -1.0203 -0.0591
C -0.8312 -2.3975 -0.0443
C -0.3401 -2.8402 1.3522
C -1.5428 -3.3896 2.0758
C -1.9136 -4.7010 1.4012
C -2.2302 -4.4836 -0.0895
C -1.1200 -3.7264 -0.8333
C -1.1086 0.0969 0.1516
C -0.2273 1.1566 0.2184
N 1.0364 0.6761 0.1087
C 2.3087 1.4281 0.0148
C 2.2245 2.6796 0.8919
C 2.1302 2.2369 2.3534
C 3.4593 1.5854 2.7309
C 3.7378 0.3264 1.8590
C 3.6232 0.6334 0.3519
Ag 2.6584 -1.8814 -0.0135
O 4.3342 -3.0623 -0.0245
C 5.5254 -2.7236 0.3981
N 6.3919 -3.7482 0.2575
C 5.6524 -4.7435 -0.2777
C 4.3621 -4.2950 -0.4525
H -0.1697 -2.4011 -0.9403
H 0.0258 -1.9992 1.9885
H 0.5087 -3.5556 1.2784
H -2.3757 -2.6452 2.0237
H -1.2919 -3.5567 3.1415
H -2.7902 -5.1368 1.9181
H -1.0486 -5.3923 1.5086
H -3.1493 -3.8684 -0.1719
H -2.4095 -5.4673 -0.5714
H -1.4892 -3.6169 -1.8887
H -0.1950 -4.3824 -0.8640
H -2.1807 0.1434 0.2891
H -0.5029 2.1905 0.3691
H 2.4043 1.7577 -1.0436
H 1.3510 3.2938 0.6025
H 3.1160 3.3275 0.7339
H 1.2976 1.5130 2.5095
H 1.9278 3.1192 2.9922
H 3.4479 1.3201 3.8094
H 4.2537 2.3546 2.5866
H 3.0210 -0.4716 2.1205
H 4.7670 -0.0196 2.1039
H 3.8627 -0.1758 -0.3644
H 4.4528 1.3468 0.1429
H 5.7867 -1.7556 0.7995
H 6.0274 -5.7292 -0.5187
H 3.5168 -4.8410 -0.8499
