58
 
C 1.0240 -0.6530 -0.0550
N 0.3997 -0.5461 1.0520
C 0.7260 -1.2889 2.2506
C 1.9280 -2.2312 2.0413
C -0.7288 0.3559 0.9225
C -0.4926 1.0355 -0.4333
N 0.4261 0.1375 -1.0704
C 0.6976 0.1433 -2.4964
C 1.6369 -0.9688 -2.8781
Ag 2.7802 -1.8697 -0.2955
P 4.7896 -3.2619 -0.5706
O 5.8667 -3.2739 -1.9196
C 6.1208 -1.8858 -2.2776
C 6.8289 -1.7154 -3.6336
C 4.8820 -0.9677 -2.3827
O 5.9596 -2.5317 0.4499
C 5.6508 -2.5507 1.8200
C 5.3756 -3.9564 2.3715
C 6.8597 -1.9583 2.5468
O 4.3717 -4.9208 -0.5533
C 3.3674 -5.2360 -1.4968
C 3.8291 -5.0499 -2.9533
C 3.0207 -6.7166 -1.3052
H -0.1623 -1.8853 2.5512
H 0.9487 -0.5669 3.0678
H 1.7542 -2.9623 1.2350
H 2.1243 -2.7715 2.9885
H 2.7921 -1.6305 1.7687
H -0.8081 1.1163 1.7278
H -1.6500 -0.2670 0.8831
H 0.0574 1.9945 -0.2911
H -1.4354 1.2115 -0.9927
H 1.1400 1.1231 -2.7819
H -0.2450 -0.0078 -3.0618
H 2.4785 -0.7583 -2.2651
H 1.9131 -0.9231 -3.9534
H 1.2512 -1.9767 -2.6205
H 6.7991 -1.4581 -1.5163
H 6.1871 -2.0259 -4.4904
H 7.7935 -2.2479 -3.6659
H 7.0441 -0.6279 -3.7838
H 4.2665 -1.2870 -3.2499
H 5.1792 0.0913 -2.5332
H 4.2833 -0.9406 -1.4549
H 4.8170 -1.8683 2.0222
H 6.2280 -4.6305 2.1406
H 4.4444 -4.3715 1.9400
H 5.2281 -3.9124 3.4708
H 7.7611 -2.5859 2.3745
H 6.6669 -1.8918 3.6384
H 7.0689 -0.9349 2.1653
H 2.4425 -4.6489 -1.2994
H 4.7836 -5.5949 -3.1264
H 3.9576 -3.9793 -3.2028
H 3.0603 -5.4364 -3.6529
H 3.9176 -7.3519 -1.4830
H 2.2263 -7.0206 -2.0198
H 2.6559 -6.9058 -0.2739
