54
 
C 0.9010 -0.6430 -0.0020
N -0.3527 -1.1059 0.0172
C -0.7158 -2.5227 0.0215
C 0.5982 -3.3750 -0.0008
C -1.5396 -2.8225 1.2848
C -1.5838 -2.8301 -1.2225
C -1.1493 -0.0130 0.0062
C -0.3378 1.1058 -0.0069
N 0.9484 0.6888 -0.0113
C 2.1788 1.4791 0.0141
C 2.1576 2.3763 1.2741
C 3.4226 0.5215 0.0463
C 2.2247 2.3548 -1.2489
Ag 2.6584 -1.8814 -0.0135
P 4.6693 -3.2985 -0.0267
N 6.2514 -2.5480 -0.3399
C 6.5613 -1.4648 0.6254
C 7.3449 -3.4894 -0.4669
O 5.1110 -3.7991 1.5505
C 4.1561 -4.6399 2.1191
O 4.5684 -4.1765 -1.4930
C 3.4577 -5.0262 -1.5018
H 1.2630 -3.1702 0.8493
H 1.1784 -3.1185 -0.8935
H 0.3367 -4.4533 0.0026
H -0.9427 -2.6022 2.1933
H -1.8575 -3.8860 1.3052
H -2.4573 -2.1911 1.3133
H -1.0329 -2.6077 -2.1606
H -2.5119 -2.2136 -1.2224
H -1.8956 -3.8965 -1.2393
H -2.2318 -0.0205 0.0076
H -0.6635 2.1384 -0.0040
H 2.1009 1.7576 2.1958
H 1.2695 3.0489 1.2711
H 3.0625 3.0164 1.3310
H 3.4072 -0.1496 0.9197
H 4.3485 1.1292 0.0849
H 3.4653 -0.1207 -0.8471
H 1.3279 3.0108 -1.3160
H 2.2374 1.7071 -2.1508
H 3.1271 3.0003 -1.2516
H 5.6953 -0.7911 0.7954
H 7.3758 -0.8176 0.2294
H 6.8922 -1.8589 1.6106
H 7.1251 -4.1775 -1.3043
H 7.4883 -4.0426 0.4811
H 8.2714 -2.9296 -0.7234
H 4.6694 -5.2079 2.9279
H 3.7622 -5.4022 1.4165
H 3.3698 -4.0221 2.5939
H 3.1327 -5.1486 -2.5581
H 2.6016 -4.6178 -0.9631
H 3.7192 -6.0196 -1.0920
