61
 
P 1.2750 0.0000 0.0000
N 0.4765 1.5325 -0.2435
C 1.1256 2.4919 0.7128
C 2.6892 2.6073 0.5098
C 0.5413 3.8990 0.5962
C -0.9803 1.4175 -0.2332
C -1.4186 -0.0227 0.0221
C -2.9514 -0.0583 0.0207
C -0.8647 -0.9545 -1.1387
N 0.6245 -0.9583 -1.3485
C 1.1522 -2.3808 -1.2797
C 0.6093 -3.3632 -2.3177
C 2.6824 -2.4840 -1.3197
N 0.6644 -0.3640 1.6160
C 1.2467 -1.6652 2.1123
C 2.8003 -1.7091 2.1947
C 0.7075 -2.1197 3.4705
C -0.8362 -0.4549 1.4418
Ag 3.7350 0.0003 -0.0005
N 5.8350 0.0006 -0.0009
C 5.9868 -1.4285 -0.3803
N 6.6346 0.0239 1.1197
C 7.8316 0.3835 0.7978
C 7.8130 0.9873 -0.4475
C 6.5084 0.8623 -0.8918
H 0.9498 2.1591 1.7610
H 2.9791 2.8452 -0.5309
H 3.2660 1.7221 0.7768
H 3.1024 3.3804 1.1934
H 0.7195 4.3029 -0.4192
H 1.0162 4.5531 1.3586
H -0.5394 3.9226 0.8185
H -1.3484 1.7664 -1.2250
H -1.4359 2.0518 0.5463
H -3.3366 0.2753 -0.9692
H -3.3503 0.6319 0.7951
H -3.3167 -1.0833 0.2241
H -1.3243 -0.6639 -2.1074
H -1.2538 -1.9644 -0.8921
H 0.8017 -2.8584 -0.3782
H 0.9341 -3.0918 -3.3364
H -0.4903 -3.4642 -2.2613
H 1.0107 -4.3785 -2.0682
H 3.1203 -2.1492 -2.2765
H 3.0274 -3.5141 -1.0667
H 3.0956 -1.8585 -0.5715
H 0.9173 -2.4750 1.4868
H 3.1705 -1.0714 3.0196
H 3.3714 -1.4335 1.2980
H 3.1156 -2.7615 2.3726
H 1.0329 -1.4327 4.2719
H 1.1070 -3.1417 3.6762
H -0.3944 -2.2203 3.4763
H -1.2910 0.1947 2.2215
H -1.2139 -1.4827 1.6095
H 5.0553 -1.9677 -0.1773
H 6.6723 -2.0306 0.2877
H 6.4332 -1.5947 -1.3821
H 8.6984 0.2513 1.4344
H 8.6222 1.5307 -0.9173
H 6.0863 1.3220 -1.7740
