83
 
C 0.9010 -0.6430 -0.0020
N 0.2434 -0.0889 -1.0403
C 0.6115 0.2785 -2.4257
C 1.6541 1.3643 -2.1092
C 3.0354 0.7222 -2.0835
C 3.4395 0.3422 -3.4985
C 2.5100 -0.7631 -3.9956
C 1.0404 -0.3785 -3.8032
C -0.9277 0.3422 -0.4857
C -0.9494 0.0649 0.8636
N 0.2006 -0.5554 1.1565
C 0.8074 -0.9277 2.4578
C 2.1436 -0.1449 2.5883
C 1.8841 1.3678 2.7456
C 1.2155 1.5982 4.0981
C -0.1346 0.8658 4.1413
C -0.0066 -0.6343 3.7624
Ag 2.6584 -1.8814 -0.0135
C 4.4159 -3.1199 -0.0250
N 4.5927 -4.4231 0.4171
C 3.5627 -5.2436 1.1420
C 2.2411 -4.6049 0.7938
C 2.0915 -4.7617 -0.7666
C 1.7381 -6.2152 -1.0494
C 2.8335 -7.1625 -0.5137
C 3.3129 -6.7803 0.8988
C 5.8626 -4.7454 0.0493
C 6.4436 -3.6524 -0.5875
N 5.5493 -2.6498 -0.6061
C 5.6437 -1.3060 -1.1904
C 5.4766 -0.2370 -0.0903
C 6.7532 -0.0385 0.7273
C 7.8542 0.4670 -0.2159
C 8.1575 -0.6069 -1.2682
C 6.8899 -0.9677 -2.0632
H -0.4073 0.5044 -2.8063
H 1.5047 1.8023 -1.0887
H 1.6342 2.1968 -2.8214
H 3.0198 -0.1687 -1.4449
H 3.7393 1.4576 -1.6815
H 4.4851 -0.0136 -3.5675
H 3.3813 1.2653 -4.1123
H 2.6981 -1.7054 -3.4497
H 2.7256 -0.9256 -5.0806
H 0.3840 -1.1784 -4.2033
H 0.9106 0.4795 -4.5198
H -1.7017 0.8819 -1.0171
H -1.7218 0.3458 1.5668
H 1.0149 -2.0169 2.4166
H 2.7679 -0.3099 1.6979
H 2.7284 -0.5061 3.4616
H 1.2409 1.7606 1.9233
H 2.8437 1.9248 2.7116
H 1.0659 2.6861 4.2800
H 1.8981 1.2194 4.8920
H -0.8300 1.3747 3.4487
H -0.5497 0.9586 5.1721
H -1.0053 -1.1160 3.7452
H 0.5689 -1.1056 4.5918
H 3.8125 -5.1762 2.2236
H 2.3495 -3.6302 1.2508
H 1.3696 -5.0164 1.3328
H 3.0161 -4.5782 -1.3674
H 1.3428 -4.0614 -1.1720
H 1.6175 -6.3881 -2.1419
H 0.7649 -6.3989 -0.5520
H 3.7182 -7.1409 -1.1754
H 2.4266 -8.2042 -0.5139
H 4.1450 -7.4387 1.2239
H 2.4671 -7.0433 1.5854
H 6.3503 -5.7005 0.1939
H 7.4363 -3.5935 -1.0191
H 4.7928 -1.2925 -1.8790
H 4.6146 -0.4929 0.5482
H 5.2904 0.7485 -0.5367
H 7.0638 -0.9818 1.2273
H 6.5600 0.7291 1.5071
H 8.7731 0.7119 0.3555
H 7.5138 1.4065 -0.7147
H 8.5687 -1.5005 -0.7619
H 8.9281 -0.2163 -1.9722
H 7.0944 -1.7652 -2.8084
H 6.6344 -0.0492 -2.6384
