42
 
C 0.9010 -0.6430 -0.0020
N -0.3432 -1.1105 0.0084
C -0.6873 -2.5346 0.0238
C 0.6313 -3.4018 -0.0024
C -1.4844 -2.8298 1.3087
C -1.5671 -2.8473 -1.2062
C -1.1395 -0.0155 0.0070
C -0.3257 1.1076 -0.0098
N 0.9596 0.6898 -0.0140
C 2.2060 1.4689 -0.0230
C 2.2328 2.3595 1.2317
C 3.4401 0.5018 -0.0121
C 2.2494 2.3547 -1.2862
Ag 2.6584 -1.8814 -0.0135
N 4.3750 -3.0911 -0.0247
C 5.6603 -2.7057 -0.0349
O 6.4616 -3.7502 -0.0454
C 5.7051 -4.8289 -0.0412
C 4.3873 -4.4298 -0.0280
H 1.2726 -3.2098 0.8713
H 1.2529 -3.2008 -0.8879
H 0.3532 -4.4754 -0.0022
H -0.8583 -2.6162 2.2007
H -1.8095 -3.8906 1.3439
H -2.3936 -2.1897 1.3707
H -1.0184 -2.6262 -2.1456
H -2.4942 -2.2291 -1.2022
H -1.8774 -3.9135 -1.2159
H -2.2219 -0.0233 0.0162
H -0.6486 2.1411 -0.0160
H 2.1712 1.7328 2.1469
H 1.3651 3.0563 1.2374
H 3.1624 2.9645 1.2711
H 3.4316 -0.1504 0.8770
H 4.3857 1.0767 0.0028
H 3.4511 -0.1484 -0.9033
H 1.3892 3.0602 -1.3111
H 2.2034 1.7329 -2.2058
H 3.1832 2.9560 -1.3137
H 5.9900 -1.6758 -0.0383
H 6.0701 -5.8473 -0.0482
H 3.5064 -5.0582 -0.0220
