87
 
C 0.9010 -0.6430 -0.0020
N 0.0493 -0.4610 1.0644
C 0.0652 -0.9282 2.4660
C 1.2420 -0.4241 3.3063
C -0.9218 0.3735 0.6294
C -0.7187 0.6577 -0.6887
N 0.4006 0.0346 -1.0899
C 0.8509 0.0372 -2.4808
C -0.0182 -0.7438 -3.4589
Ag 2.6584 -1.8814 -0.0135
C 4.4159 -3.1199 -0.0250
N 5.6708 -2.6800 -0.2521
C 6.2643 -1.3375 -0.3105
C 7.6307 -1.1624 0.1984
C 8.4545 -2.2571 0.9745
C 9.8632 -1.8689 1.4233
C 7.7134 -2.8231 2.2249
C 8.2546 0.0947 0.0334
C 7.6171 1.1587 -0.5404
C 6.3096 1.0591 -0.8718
C 5.5683 -0.1401 -0.7508
C 4.0869 0.0055 -1.0915
C 3.3891 0.5641 0.1385
C 3.8671 1.0381 -2.2322
C 6.3771 -3.8232 -0.3763
C 5.6383 -4.9131 -0.0367
N 4.3742 -4.5314 0.1814
C 3.2900 -5.5766 0.3272
C 3.3175 -6.7836 1.1731
C 4.4457 -7.2471 2.0852
C 3.9631 -7.4328 3.5389
C 4.9757 -8.6100 1.5749
C 2.2208 -7.7095 1.1470
C 1.1249 -7.5433 0.3534
C 1.1062 -6.4941 -0.4913
C 2.1789 -5.5714 -0.5619
C 2.1244 -4.7085 -1.7531
C 2.1677 -5.6859 -2.9973
C 0.9237 -3.8016 -1.5498
H 0.0239 -2.0299 2.4977
H -0.8399 -0.5323 2.9906
H 2.2052 -0.7944 2.9131
H 1.1186 -0.8211 4.3412
H 1.2545 0.6866 3.3872
H -1.7405 0.7532 1.2292
H -1.3532 1.2714 -1.3170
H 1.8075 -0.4935 -2.5222
H 0.8654 1.0882 -2.8596
H -0.3028 -1.7226 -3.0587
H 0.5924 -0.9049 -4.3816
H -0.9491 -0.2193 -3.7297
H 8.7518 -3.0663 0.3192
H 9.8429 -1.1119 2.2309
H 10.4597 -1.5322 0.5495
H 10.3701 -2.7872 1.8028
H 7.2794 -2.0247 2.8620
H 8.3944 -3.4410 2.8520
H 6.9014 -3.5217 1.9756
H 9.2607 0.3002 0.3437
H 8.1143 2.1079 -0.6949
H 5.9226 1.9891 -1.2322
H 3.6731 -0.9401 -1.4532
H 3.8909 1.4492 0.5808
H 3.2880 -0.1778 0.9403
H 2.4392 1.0655 -0.1251
H 4.0793 2.0729 -1.9174
H 2.8650 1.2865 -2.5317
H 4.3966 0.6847 -3.1320
H 7.3783 -3.9119 -0.7009
H 6.0216 -5.9230 -0.0375
H 5.2782 -6.5227 2.0776
H 3.1011 -8.1314 3.6168
H 3.6575 -6.4633 3.9760
H 4.7721 -7.8805 4.1521
H 4.2070 -9.4116 1.6506
H 5.8366 -8.9643 2.1763
H 5.2836 -8.5245 0.5125
H 2.1889 -8.6171 1.7292
H 0.3126 -8.2639 0.3287
H 0.2586 -6.4545 -1.1674
H 3.0043 -4.0529 -1.8476
H 1.5012 -6.5794 -2.9353
H 3.1798 -6.1549 -3.0441
H 1.9447 -5.2350 -3.9786
H -0.0421 -4.3342 -1.6950
H 1.0388 -3.0025 -2.2731
H 0.9732 -3.3563 -0.5051
