62
 
C 0.9031 -0.6620 0.0058
N 0.5031 0.1441 -1.0054
C 1.2081 0.3133 -2.2755
C 1.5926 1.7799 -2.4424
C 2.4185 -0.6396 -2.3538
C -0.6368 0.7451 -0.5799
C -0.8996 0.3087 0.6982
N 0.0658 -0.5654 1.0470
C 0.1806 -1.3160 2.2870
C 1.4601 -2.1776 2.2102
C 0.2167 -0.3440 3.4884
Ag 2.6557 -1.8822 -0.0125
P 4.6750 -3.2885 -0.0326
C 5.7940 -2.9459 -1.3971
C 6.3424 -1.6501 -1.4875
C 6.9174 -1.2026 -2.6844
C 6.9672 -2.0461 -3.7953
C 6.4459 -3.3379 -3.7098
C 5.8496 -3.7803 -2.5226
C 5.7112 -2.7853 1.3937
C 5.3871 -1.7591 2.2843
C 6.2474 -1.4525 3.3555
C 7.4441 -2.1545 3.5425
C 7.7604 -3.2017 2.6961
C 6.8979 -3.5208 1.6562
C 4.1134 -5.0377 -0.1336
C 2.7397 -5.3482 -0.1926
C 2.3106 -6.6632 -0.3177
C 3.2404 -7.6910 -0.3035
C 4.6029 -7.3801 -0.2051
O 5.4204 -8.2813 -0.1549
N 5.0180 -6.0630 -0.1584
H 0.5194 0.0589 -3.1054
H 2.2722 2.0788 -1.6069
H 0.6211 2.3764 -2.4738
H 2.1494 1.9172 -3.3939
H 3.1328 -0.4378 -1.5323
H 2.9397 -0.5352 -3.3284
H 2.0566 -1.6858 -2.2706
H -1.2370 1.4516 -1.1368
H -1.7369 0.6017 1.3188
H -0.6999 -1.9950 2.3905
H 2.3470 -1.5296 2.0768
H 1.4141 -2.8690 1.3430
H 1.5798 -2.7865 3.1274
H 1.0237 0.3779 3.3764
H 0.3614 -0.9397 4.4175
H -0.6990 0.2585 3.5464
H 6.2546 -0.9542 -0.6678
H 7.2841 -0.1863 -2.7693
H 7.3821 -1.6896 -4.7309
H 6.4584 -3.9799 -4.5815
H 5.3761 -4.7471 -2.5266
H 4.4759 -1.2153 2.1714
H 5.9903 -0.6657 4.0450
H 8.1224 -1.9063 4.3481
H 8.6730 -3.7766 2.8386
H 7.2162 -4.3639 1.0927
H 1.9698 -4.6039 -0.1398
H 1.2504 -6.8788 -0.4024
H 2.8931 -8.7166 -0.3536
H 6.0395 -5.8450 -0.1101
