65
 
C 1.0240 -0.6530 -0.0550
N 1.0272 0.6577 -0.1615
C 2.1531 1.6388 -0.2192
C 3.4488 1.4328 -0.8211
C 3.8294 0.2162 -1.5892
C 4.4597 2.4433 -0.7538
C 4.2283 3.6730 -0.1335
C 5.2339 4.7834 -0.0267
C 3.0129 3.8969 0.4382
C 2.0147 2.9294 0.4258
C 0.8471 3.3321 1.2232
C -0.3526 1.0865 -0.0341
C -1.1990 -0.1316 -0.1883
N -0.2955 -1.1943 0.1617
C -0.6947 -2.5581 0.4696
C 0.1452 -3.6684 0.1674
C 1.3533 -3.6112 -0.6664
C -0.1568 -4.9512 0.5962
C -1.3233 -5.2150 1.2785
C -1.6247 -6.6119 1.7026
C -2.2148 -4.1805 1.5364
C -1.9319 -2.8583 1.1517
C -2.9856 -1.8457 1.5258
Ag 2.7802 -1.8697 -0.2955
N 4.4956 -3.0582 -0.5304
C 5.3025 -3.3244 0.5462
C 6.5356 -3.9984 0.3816
O 7.3595 -4.1810 1.4535
C 8.6212 -4.7585 1.4156
C 6.8840 -4.4452 -0.9024
C 6.0301 -4.2088 -1.9752
C 4.8473 -3.4868 -1.7755
H 2.9342 -0.3166 -1.9001
H 4.6087 -0.3385 -1.0209
H 4.2804 0.5487 -2.5509
H 5.4326 2.2844 -1.2038
H 6.1985 4.5182 -0.4946
H 5.4001 5.0172 1.0506
H 4.8257 5.7022 -0.5079
H 2.8516 4.8541 0.9310
H 0.9495 4.2823 1.7776
H 0.7963 2.5501 2.0082
H 0.0082 3.4787 0.5210
H -0.6698 1.8403 -0.7855
H -0.5482 1.3820 1.0119
H -1.5004 -0.2907 -1.2440
H -2.0780 0.0885 0.4249
H 1.3071 -2.7239 -1.3252
H 1.3700 -4.3959 -1.4427
H 2.2092 -3.7789 0.0301
H 0.5283 -5.7608 0.3661
H -0.8027 -7.3040 1.4157
H -2.5562 -6.9461 1.2043
H -1.7414 -6.6410 2.8039
H -3.1377 -4.4123 2.0527
H -3.8300 -2.2785 2.0987
H -3.4550 -1.4483 0.5999
H -2.5489 -1.0530 2.1706
H 5.0305 -2.9536 1.5251
H 9.0528 -4.7896 2.4380
H 9.3106 -4.1691 0.7697
H 8.5595 -5.8006 1.0362
H 7.8152 -4.9699 -1.0817
H 6.3008 -4.5702 -2.9589
H 4.1989 -3.2884 -2.6167
