24
 
C -0.2770 -1.1670 -0.0105
N -1.2217 -0.0688 -0.0218
C -2.7595 -0.1067 -0.0058
C -0.4210 1.1182 -0.0075
Cl -0.7559 2.9611 0.0012
C 0.9085 0.7108 0.0046
Cl 2.3546 1.7600 -0.0091
N 0.9873 -0.6409 0.0195
C 2.2781 -1.3294 0.0185
Ag -0.5013 -3.4547 0.0017
N -0.7505 -5.5100 0.0150
C -1.8822 -6.2481 0.0750
O -1.6149 -7.5418 0.0746
C -0.3129 -7.6584 -0.0020
C 0.2295 -6.4205 -0.0152
H -3.1812 -1.1383 0.0004
H -3.2376 0.3958 -0.8839
H -3.2324 0.3941 0.8860
H 3.1106 -0.6014 0.0164
H 2.3921 -1.9473 -0.8768
H 2.3837 -1.9440 0.9093
H -2.8712 -5.8308 0.1706
H 0.2564 -8.5515 -0.0521
H 1.2605 -6.2243 -0.0956
