37
 
C -0.2446 -1.1927 0.0894
N -1.1022 -0.1424 -0.3038
C -2.5044 -0.1473 -0.8385
C -0.3971 1.0197 -0.0463
Cl -0.8425 2.7336 -0.2733
C 0.8234 0.6920 0.4701
Cl 2.1291 1.8151 0.8750
N 0.9093 -0.6446 0.5655
C 2.1024 -1.3574 0.9788
Ag -0.4519 -3.4338 0.0598
N -0.6984 -5.5083 -0.0028
C -1.6248 -6.1093 -0.7023
C -2.5685 -5.4058 -1.6916
C -2.4693 -4.0181 -1.9769
C -3.4872 -3.3643 -2.7155
C -4.5554 -4.0755 -3.2493
C -4.5679 -5.4407 -3.1372
C -3.6059 -6.0841 -2.3939
N -1.6335 -7.5226 -0.4771
C -0.4106 -7.8697 0.2050
C 0.0237 -6.5102 0.7957
H -2.9130 -1.1667 -0.9487
H -2.6206 0.3684 -1.8270
H -3.2247 0.3941 -0.1641
H 2.9153 -0.6459 1.2231
H 2.4734 -1.9630 0.1251
H 1.8936 -1.9828 1.8567
H -1.6522 -3.4150 -1.6271
H -3.4812 -2.2975 -2.8750
H -5.3556 -3.5895 -3.7863
H -5.3366 -6.0366 -3.6123
H -3.8007 -7.1060 -2.4437
H -2.2898 -8.2145 -0.8827
H 0.3351 -8.1981 -0.5575
H -0.4963 -8.7098 0.9403
H 1.1180 -6.4022 0.8236
H -0.3821 -6.4682 1.8443
