59
 
C 1.0240 -0.6530 -0.0550
N -0.1658 -1.0853 -0.2244
C -0.4867 -2.4179 -0.6690
C -1.1388 -0.0376 -0.0119
C -0.3093 1.0896 0.6131
N 1.0452 0.7177 0.2776
C 2.1965 1.5526 0.4061
C 3.4721 1.0055 0.6467
C 4.5842 1.8526 0.7713
C 4.4441 3.2365 0.6162
C 3.1909 3.7839 0.3476
C 2.0723 2.9526 0.2580
Ag 2.7802 -1.8697 -0.2955
P 4.7896 -3.2619 -0.5706
O 5.8714 -3.2458 -1.9058
C 6.0557 -1.8672 -2.3114
C 6.7495 -1.7522 -3.6799
C 4.7767 -0.9695 -2.4039
O 5.9433 -2.4838 0.4239
C 5.6306 -2.5468 1.7971
C 5.3894 -3.9749 2.3265
C 6.8286 -1.9446 2.5414
O 4.3799 -4.9213 -0.6479
C 3.3632 -5.1921 -1.5890
C 3.8322 -4.9803 -3.0380
C 2.9991 -6.6747 -1.4336
H 0.4474 -3.0239 -0.7925
H -1.0221 -2.3545 -1.6432
H -1.1629 -2.8986 0.0688
H -1.9770 -0.3321 0.6555
H -1.5255 0.2730 -1.0075
H -0.3767 1.0126 1.7251
H -0.6485 2.0935 0.2941
H 3.6064 -0.0576 0.7674
H 5.5602 1.4395 0.9859
H 5.3058 3.8879 0.6993
H 3.0853 4.8542 0.2075
H 1.1189 3.4130 0.0386
H 6.7506 -1.4059 -1.5840
H 6.1003 -2.0993 -4.5147
H 7.7113 -2.2989 -3.7035
H 6.9762 -0.6763 -3.8705
H 4.0811 -1.3142 -3.2017
H 5.0786 0.0751 -2.6238
H 4.2258 -0.8741 -1.4481
H 4.7482 -1.9067 2.0046
H 6.2434 -4.6409 2.0771
H 4.4575 -4.3983 1.9026
H 5.2530 -3.9567 3.4284
H 7.7467 -2.5507 2.3682
H 6.6335 -1.9000 3.6334
H 7.0229 -0.9129 2.1774
H 2.4485 -4.5903 -1.3721
H 4.7795 -5.5358 -3.2184
H 3.9825 -3.9071 -3.2588
H 3.0619 -5.3403 -3.7500
H 3.8900 -7.3149 -1.6266
H 2.2028 -6.9567 -2.1549
H 2.6350 -6.8879 -0.4068
