35
 
C -0.2390 -1.1781 -0.0212
N 0.9823 -0.3575 -0.0987
C 2.4703 -0.8236 -0.1738
C 0.5185 1.0288 -0.0870
Cl 1.3273 2.7218 -0.1271
C -0.8785 0.9686 -0.0233
Cl -1.9983 2.3473 0.0331
N -1.3220 -0.3247 -0.0013
C -2.7475 -0.6350 0.0472
Ag -0.5709 -3.4534 -0.0106
N -0.8290 -5.5345 0.0144
C 0.0412 -6.3931 0.6363
N 1.1838 -5.8940 1.3615
C 1.1743 -4.5901 1.9883
C 2.4009 -6.6828 1.4523
C -0.2540 -7.7800 0.5943
C -1.1625 -8.2865 -0.3131
C -1.9742 -7.4385 -0.9678
C -1.8890 -6.0747 -0.6842
H 2.5729 -1.9233 -0.1769
H 3.0776 -0.4643 0.6820
H 2.9972 -0.4668 -1.0825
H -3.3385 0.2860 0.0684
H -2.9777 -1.2020 0.9410
H -3.0437 -1.1992 -0.8299
H 0.2725 -4.1245 1.8559
H 1.9207 -3.9279 1.5691
H 1.3167 -4.6681 3.0626
H 2.3021 -7.6241 0.9345
H 2.6411 -6.9004 2.4889
H 3.2437 -6.1588 0.9974
H 0.2254 -8.4630 1.2310
H -1.2517 -9.3229 -0.5001
H -2.6749 -7.8372 -1.6520
H -2.6523 -5.4497 -1.0618
