36
 
C -0.2794 -1.1424 0.0286
N -1.2129 -0.0583 0.0150
C -2.7333 -0.1068 0.0068
C -0.4128 1.1113 0.0024
C -0.7153 2.6622 0.0012
C 0.9076 0.7098 -0.0078
C 2.1313 1.5946 -0.0107
N 0.9840 -0.6321 -0.0017
C 2.2665 -1.3431 0.0068
Ag -0.5115 -3.4102 0.0376
N -0.7689 -5.5112 0.0434
C 0.2607 -6.4113 0.1976
C 0.0986 -7.7985 -0.0178
C 1.2547 -8.7507 -0.0100
C -1.1632 -8.2931 -0.2479
C -2.2422 -7.4244 -0.2326
C -2.0221 -6.0326 -0.1737
H -3.1575 -1.1412 0.0020
H -3.2083 0.3948 -0.8815
H -3.2104 0.3950 0.8888
H -1.7801 2.9044 0.0037
H -0.2656 3.2210 -0.8782
H -0.2626 3.2196 0.8807
H 1.8890 2.6617 -0.0124
H 2.7452 1.3774 -0.9087
H 2.7507 1.3841 0.8871
H 3.1207 -0.6320 0.0142
H 2.3863 -1.9626 -0.8896
H 2.3728 -1.9516 0.9171
H 1.2077 -6.0765 0.5454
H 2.1872 -8.2066 0.1965
H 1.3503 -9.2287 -1.0100
H 1.1220 -9.5505 0.7397
H -1.2889 -9.3509 -0.4184
H -3.2324 -7.8351 -0.3037
H -2.8563 -5.3806 -0.3846
