49
 
C 1.0240 -0.6530 -0.0550
N 1.0489 0.6204 -0.1134
C 2.2636 1.4115 -0.2441
C 2.3950 2.3414 0.9750
C 3.5278 0.5186 -0.4105
C -0.2862 1.1609 0.0649
C -1.1931 -0.0701 -0.0626
N -0.2734 -1.1601 0.1409
C -0.6457 -2.5360 0.4278
C -1.5737 -3.0894 -0.6577
C 0.5934 -3.4399 0.5848
Ag 2.7802 -1.8697 -0.2955
N 4.4956 -3.0582 -0.5304
C 4.3877 -4.3802 -0.2783
C 5.5193 -5.1886 -0.2781
C 6.8020 -4.6375 -0.5397
N 8.0139 -5.4366 -0.4361
C 8.0141 -6.8469 -0.0546
C 9.3527 -4.8819 -0.6142
C 6.8407 -3.2520 -0.8595
C 5.6781 -2.4853 -0.8408
H 2.1722 2.0502 -1.1494
H 2.4502 1.7523 1.9152
H 1.5153 3.0206 1.0424
H 3.2955 2.9828 0.8881
H 3.6786 -0.1618 0.4391
H 4.4224 1.1672 -0.4959
H 3.4576 -0.0949 -1.3285
H -0.5644 1.9405 -0.6756
H -0.3524 1.5669 1.0990
H -1.5551 -0.1534 -1.1136
H -2.0517 -0.0390 0.6399
H -1.2074 -2.5362 1.3911
H -1.0482 -3.1092 -1.6346
H -2.4878 -2.4641 -0.7500
H -1.8964 -4.1197 -0.3941
H 1.1469 -3.5246 -0.3666
H 0.2498 -4.4546 0.8892
H 1.2566 -3.0536 1.3841
H 3.4190 -4.7969 -0.0335
H 5.3363 -6.2172 -0.0334
H 7.0295 -7.2985 0.1154
H 8.5777 -6.9709 0.8953
H 8.5064 -7.4500 -0.8451
H 9.3990 -3.8174 -0.8713
H 9.8817 -5.4290 -1.4213
H 9.9240 -4.9924 0.3325
H 7.7342 -2.7063 -1.0937
H 5.7220 -1.4224 -1.0388
