56
 
P 1.0963 0.0048 0.0266
C 0.3250 -1.5438 -0.9243
C -1.2129 -1.6412 -0.9952
C 0.8199 -1.6805 -2.3952
C 0.8068 -2.8787 -0.3050
C 0.6310 -0.1532 1.9266
C 1.2447 -1.3706 2.6507
C 1.1451 1.0493 2.7570
C -0.9036 -0.1751 2.1991
C 0.5707 1.6029 -0.9342
C -0.9698 1.7434 -1.0067
C 1.0572 2.8831 -0.2188
C 1.1131 1.7232 -2.3708
Ag 3.5563 0.0048 0.0266
N 5.6563 0.0048 0.0266
C 6.2785 0.5563 -1.0438
C 7.6775 0.4879 -1.1665
O 8.3385 0.9858 -2.2430
C 7.7405 1.6106 -3.3192
C 8.4041 -0.1474 -0.1526
C 7.7401 -0.7012 0.9460
C 6.3472 -0.6191 1.0157
H -1.6769 -0.9166 -1.6596
H -1.7023 -1.6120 -0.0353
H -1.5196 -2.6169 -1.4264
H 0.3855 -0.9577 -3.0845
H 0.4447 -2.6327 -2.8416
H 1.9281 -1.7070 -2.4813
H 0.3321 -3.0758 0.6455
H 1.9171 -2.9671 -0.2785
H 0.4320 -3.7547 -0.8822
H 2.3505 -1.3382 2.6158
H 0.9000 -2.3453 2.3467
H 0.9169 -1.3740 3.7159
H 2.2460 1.1518 2.6961
H 0.8766 0.9134 3.8327
H 0.6461 1.9959 2.5260
H -1.4081 -1.0636 1.8290
H -1.4208 0.7445 1.8682
H -1.1200 -0.2436 3.2862
H -1.4479 1.6587 -0.0193
H -1.4202 1.0461 -1.7102
H -1.2757 2.7278 -1.4185
H 0.6484 2.9825 0.7862
H 0.6612 3.7895 -0.7357
H 2.1610 2.9665 -0.2022
H 0.7086 0.9858 -3.0544
H 2.2201 1.7001 -2.3947
H 0.7673 2.6800 -2.8264
H 5.6666 1.0188 -1.8054
H 8.5104 1.8544 -4.0781
H 7.2474 2.5496 -2.9887
H 6.9912 0.9354 -3.7877
H 9.4818 -0.2262 -0.2232
H 8.2977 -1.2069 1.7237
H 5.8139 -1.0701 1.8421
