27
 
C -0.2080 -1.3116 -0.0126
N -1.3323 -0.0513 -0.0022
C -2.8615 -0.1018 0.0012
C -0.3590 1.2657 -0.0001
Cl -0.7268 3.0417 0.0021
C 0.9139 0.7330 -0.0018
Cl 2.3762 1.7360 -0.0109
N 1.0041 -0.6475 0.0042
C 2.3011 -1.3178 0.0131
Ag -0.5035 -3.4814 -0.0181
N -0.8141 -5.5557 -0.0145
C 0.2369 -6.4253 -0.1156
F 1.4792 -5.9589 -0.2091
C 0.0384 -7.7448 -0.1242
C -1.1857 -8.2575 -0.0290
F -1.3382 -9.5791 -0.0333
C -2.2868 -7.4347 0.0729
C -2.1057 -6.0591 0.0740
F -3.1586 -5.2405 0.1680
H -3.1889 -1.1262 0.0008
H -3.2472 0.3906 -0.8740
H -3.2456 0.3894 0.8780
H 3.0915 -0.5897 0.0157
H 2.3942 -1.9353 -0.8604
H 2.3835 -1.9297 0.8917
H 0.8482 -8.3794 -0.2044
H -3.2372 -7.8445 0.1464
