46
 
N -1.4173 -0.2763 -0.0293
C -0.6166 0.5543 -0.7647
C 0.7820 0.4065 -0.7753
Cl 1.8155 1.3940 -1.8020
C 1.3641 -0.5423 0.0479
C 0.5573 -1.3068 0.8877
C -0.8408 -1.1985 0.8038
Ag -3.4676 -0.2319 -0.2340
P -5.9106 -0.2215 -0.4420
C -6.6815 1.3480 -0.7306
C -7.4322 1.6899 -1.8421
C -7.8130 3.0225 -2.0251
C -7.5844 3.9694 -1.0302
C -6.9730 3.5909 0.1604
C -6.4478 2.3054 0.2771
C -6.2469 -1.2284 -2.0096
C -7.0156 -2.4377 -1.9919
C -7.0092 -3.3368 -3.0556
C -6.4284 -2.9752 -4.2471
C -5.8898 -1.6965 -4.3811
C -5.7354 -0.8625 -3.2560
C -6.5928 -1.0602 0.9997
C -5.7474 -1.5519 1.9861
C -6.2695 -2.2298 3.0759
C -7.6296 -2.4913 3.1488
C -8.4693 -1.9752 2.1687
O -9.6682 -2.1805 2.2365
N -7.9434 -1.2269 1.1384
H -1.0422 1.3679 -1.3291
H 2.4395 -0.6756 0.0371
H 1.0187 -2.0055 1.5654
H -1.4598 -1.8846 1.3587
H -7.6807 0.9475 -2.5713
H -8.2961 3.3312 -2.9340
H -7.8995 4.9892 -1.1864
H -6.8842 4.3016 0.9693
H -5.8716 2.0503 1.1643
H -7.6081 -2.7757 -1.1857
H -7.4606 -4.3205 -2.9565
H -6.4341 -3.6826 -5.0635
H -5.5491 -1.3801 -5.3493
H -5.2172 0.0700 -3.3536
H -4.6904 -1.4099 1.9400
H -5.6068 -2.5537 3.8591
H -8.0300 -3.0646 3.9705
H -8.5970 -0.7788 0.4599
