49
 
N -1.3944 -0.2759 -0.0494
C -0.7135 0.8516 0.3362
C 0.6932 0.9006 0.2414
C 1.4731 2.1783 0.3788
C 1.3832 -0.2692 -0.0320
C 0.6812 -1.4534 -0.2211
C -0.7152 -1.4232 -0.3195
Ag -3.4277 -0.2226 -0.2755
P -5.8273 -0.2077 -0.5625
O -6.7939 1.1737 -0.6467
C -6.2604 1.9320 -1.7472
C -6.3382 1.2654 -3.1549
C -6.9683 3.2773 -1.8584
O -6.0992 -1.2267 -1.9430
C -5.5959 -2.5054 -1.7281
C -6.3407 -3.0737 -0.5552
C -5.8862 -3.3851 -2.9486
O -6.5917 -0.8553 0.8752
C -6.2096 -0.2295 2.0366
C -6.8181 -0.8391 3.3140
C -4.7031 -0.2146 2.2505
H -1.2399 1.7469 0.6276
H 0.7961 3.0293 0.5721
H 2.0188 2.3916 -0.5747
H 2.2236 2.0993 1.1882
H 2.4643 -0.2534 -0.0907
H 1.2232 -2.3748 -0.3317
H -1.2588 -2.3099 -0.5899
H -5.1955 2.1333 -1.5287
H -7.3854 1.0509 -3.4525
H -5.7176 0.3780 -3.1852
H -5.8496 1.9014 -3.9206
H -8.0299 3.1411 -2.1543
H -6.4701 3.9113 -2.6291
H -6.9177 3.7989 -0.8877
H -4.4888 -2.4970 -1.5776
H -7.4327 -2.9681 -0.7365
H -6.0314 -2.5819 0.2938
H -6.0165 -4.0696 -0.3101
H -6.9739 -3.3875 -3.1724
H -5.5673 -4.4276 -2.7326
H -5.3404 -3.0342 -3.8496
H -6.5569 0.8062 1.9338
H -6.4970 -1.8958 3.4467
H -7.8972 -0.7476 3.3251
H -6.5598 -0.2376 4.2085
H -4.3092 -1.2388 2.4069
H -4.4544 0.3920 3.1522
H -4.2027 0.2504 1.3943
