27
 
N -1.3938 -0.0632 -0.0663
C -0.5826 -1.2158 -0.2108
C 0.7512 -1.1906 0.2183
C 1.3245 -0.0382 0.4813
F 2.5889 -0.0101 0.8972
C 0.6040 1.1461 0.3207
C -0.7986 1.1042 0.1888
Ag -3.4784 -0.1950 -0.2850
N -5.5598 -0.3036 -0.5037
C -6.2350 -1.5355 -0.5003
C -7.5610 -1.6156 -0.9421
C -8.2684 -0.5150 -1.1061
O -9.5947 -0.5895 -1.5602
C -10.1835 -1.8409 -1.8464
C -7.6761 0.7218 -0.8198
C -6.2793 0.8224 -0.6665
H -0.9716 -2.0921 -0.6191
H 1.2918 -2.0667 0.3277
H 1.1028 2.0564 0.3088
H -1.3676 1.9663 0.2865
H -5.7518 -2.3960 -0.1684
H -7.9989 -2.5322 -1.1421
H -11.1947 -1.7073 -2.1785
H -10.1799 -2.4532 -0.9618
H -9.6208 -2.3363 -2.6180
H -8.2740 1.5658 -0.7290
H -5.8101 1.7493 -0.6784
