49
 
N -1.4139 -0.2845 -0.0274
C -0.6131 0.4113 -0.8869
C 0.7817 0.2626 -0.8690
C 1.3706 -0.5651 0.0785
C 2.8506 -0.8204 0.0395
C 0.5560 -1.1759 1.0387
C -0.8427 -1.0570 0.9479
Ag -3.4595 -0.2490 -0.2307
P -5.9064 -0.2429 -0.4326
C -6.6797 1.3342 -0.7338
C -7.4305 1.6765 -1.8490
C -7.8265 3.0081 -2.0286
C -7.5989 3.9600 -1.0355
C -6.9753 3.5880 0.1511
C -6.4524 2.2996 0.2722
C -6.2420 -1.2186 -2.0173
C -7.0090 -2.4319 -1.9917
C -7.0300 -3.3226 -3.0623
C -6.4610 -2.9578 -4.2600
C -5.9095 -1.6824 -4.3933
C -5.7429 -0.8483 -3.2681
C -6.5822 -1.0543 1.0186
C -5.7208 -1.5225 2.0019
C -6.2213 -2.2049 3.0976
C -7.5788 -2.4791 3.1854
C -8.4352 -1.9853 2.2037
O -9.6305 -2.2047 2.2836
N -7.9292 -1.2472 1.1566
H -1.0328 1.1178 -1.5858
H 1.4119 0.7861 -1.5807
H 3.3337 -0.2945 -0.8143
H 3.0197 -1.9101 -0.1172
H 3.3315 -0.5036 0.9818
H 1.0030 -1.7772 1.8153
H -1.4696 -1.6310 1.6103
H -7.6732 0.9351 -2.5836
H -8.3184 3.3129 -2.9357
H -7.9216 4.9799 -1.1888
H -6.8772 4.3057 0.9558
H -5.8801 2.0510 1.1633
H -7.5842 -2.7779 -1.1708
H -7.4908 -4.3026 -2.9599
H -6.4831 -3.6607 -5.0811
H -5.5708 -1.3668 -5.3633
H -5.2264 0.0851 -3.3686
H -4.6634 -1.3632 1.9439
H -5.5430 -2.5223 3.8720
H -7.9618 -3.0487 4.0186
H -8.5917 -0.8310 0.4648
