29
 
N -1.3948 -0.0947 -0.0472
C -0.7168 1.1029 -0.1433
C 0.6771 1.1598 -0.2959
C 1.3989 2.4027 -0.6965
C 1.3751 0.0284 -0.0635
C 0.7126 -1.1217 0.3253
C -0.6716 -1.2175 0.1834
Ag -3.4729 -0.2015 -0.2778
N -5.5542 -0.2909 -0.5111
C -6.3315 0.8428 -0.6184
C -7.7275 0.8028 -0.4735
C -8.5540 2.0288 -0.2745
C -8.3272 -0.4056 -0.5227
C -7.5672 -1.5426 -0.7238
C -6.1812 -1.4947 -0.5594
H -1.2407 2.0248 -0.1341
H 0.6848 3.2035 -0.8469
H 1.9372 2.2416 -1.6335
H 2.1106 2.6987 0.0632
H 2.4190 0.0560 -0.1693
H 1.2684 -1.9317 0.7004
H -1.1640 -2.1487 0.2671
H -5.8853 1.7882 -0.7704
H -7.9098 2.8998 -0.2528
H -9.0894 1.9738 0.6763
H -9.2773 2.1411 -1.0714
H -9.3713 -0.4481 -0.4229
H -8.0501 -2.4458 -0.9667
H -5.6143 -2.3880 -0.5034
