34
 
N -1.4058 -0.1025 -0.0392
C -0.7968 -0.4121 1.1562
C 0.5310 -0.0606 1.4218
C 1.3095 0.3182 0.3944
C 0.7790 0.3381 -0.8795
C -0.6053 0.2860 -1.0675
Ag -3.4764 -0.1977 -0.2784
N -5.5438 -0.3182 -0.5009
C -6.2535 0.8209 -0.6767
C -7.5977 0.7944 -0.8056
C -8.2741 -0.3629 -0.7986
C -7.6101 -1.5314 -0.6597
C -8.2600 -2.7381 -0.6792
C -7.4809 -3.8369 -0.9977
C -6.1560 -3.8666 -0.6013
C -5.3926 -5.1372 -0.4180
O -4.2182 -5.1292 -0.0382
C -6.0917 -6.4525 -0.6742
C -5.5538 -2.6808 -0.3413
C -6.2203 -1.4944 -0.4988
H -1.3355 -0.8895 1.9353
H 0.9507 -0.0943 2.3829
H 2.3082 0.5744 0.5861
H 1.4292 0.4307 -1.7036
H -1.0306 0.5082 -2.0075
H -5.7882 1.7448 -0.6619
H -8.1120 1.6782 -0.9162
H -9.3020 -0.3493 -0.9275
H -9.3049 -2.8228 -0.4929
H -7.8847 -4.6621 -1.5109
H -7.1142 -6.3020 -0.9827
H -6.1042 -7.0608 0.2228
H -5.5798 -6.9944 -1.4606
H -4.5589 -2.6948 -0.0583
