60
 
P 1.0917 0.0211 -0.0339
O 0.0461 -0.1342 1.3165
C 0.5689 -1.2669 2.0280
C -0.1205 -1.5123 3.3580
O 0.5640 1.5088 -0.6851
C 0.8222 2.5658 0.1893
C 2.3159 2.7532 0.3835
O 0.6170 -1.4632 -0.7636
C -0.8052 -1.4309 -0.9107
C -1.3388 -2.7504 -1.4308
Ag 3.5517 0.0211 -0.0339
P 6.0117 0.0211 -0.0339
C 6.8194 -1.5214 0.4714
C 7.6503 -2.3014 -0.3513
C 8.1096 -3.5502 0.1027
C 7.7484 -4.0220 1.3716
Cl 8.3040 -5.5896 1.9326
C 6.9251 -3.2498 2.1898
C 6.4610 -2.0153 1.7399
C 6.4916 0.3651 -1.7333
C 7.2476 1.5249 -1.9763
C 7.6226 1.8695 -3.2762
C 7.2471 1.0557 -4.3471
Cl 7.6912 1.5093 -5.9832
C 6.5106 -0.1130 -4.1109
C 6.1321 -0.4607 -2.8053
C 6.4320 1.1396 1.3334
C 7.6449 1.0069 2.0252
C 7.9600 1.8686 3.0804
C 7.0751 2.8861 3.4475
Cl 7.4585 3.9396 4.7975
C 5.8895 3.0628 2.7305
C 5.5815 2.1967 1.6738
H 1.6643 -1.1781 2.2404
H 0.3927 -2.2040 1.4554
H 0.1344 -0.7191 4.0879
H 0.2351 -2.4888 3.7654
H -1.2168 -1.5782 3.2126
H 0.2708 2.4451 1.1462
H 0.4214 3.4820 -0.2966
H 2.7289 1.8622 0.8992
H 2.4979 3.6538 1.0009
H 2.8102 2.8631 -0.6054
H -1.1217 -0.6123 -1.5927
H -1.3441 -1.3252 0.0560
H -0.9513 -2.9442 -2.4478
H -2.4514 -2.6987 -1.4648
H -1.0534 -3.5749 -0.7423
H 7.9182 -1.9793 -1.3460
H 8.7314 -4.1637 -0.5362
H 6.6262 -3.6106 3.1672
H 5.7951 -1.4488 2.3804
H 7.5444 2.1715 -1.1590
H 8.1969 2.7724 -3.4491
H 6.2254 -0.7452 -4.9409
H 5.5581 -1.3608 -2.6334
H 8.3484 0.2342 1.7541
H 8.8915 1.7398 3.6138
H 5.2104 3.8669 2.9929
H 4.6911 2.3493 1.1165
