69
 
P 0.9606 0.0489 -0.0778
O -0.0575 1.1022 0.7844
C 0.4252 1.0868 2.1423
C 1.9382 1.3970 2.3501
O 0.4379 0.2691 -1.6871
C 0.5956 1.5874 -2.1147
C 0.0431 1.6573 -3.5364
O 0.4843 -1.3609 0.7823
C -0.9331 -1.4789 0.6410
C -1.4736 -2.6489 1.4388
Ag 3.4206 0.0489 -0.0778
P 5.8806 0.0489 -0.0778
C 6.5692 1.7425 -0.0711
C 6.2582 2.6320 1.0039
C 5.4077 2.2624 2.1936
C 6.7366 3.9517 0.9780
C 7.4985 4.4139 -0.0891
C 7.7911 3.5650 -1.1511
C 7.3275 2.2475 -1.1494
C 6.3789 -0.7978 1.4727
C 7.5678 -0.5529 2.2536
C 8.6217 0.5096 2.0387
C 7.8532 -1.3960 3.3435
C 7.0206 -2.4550 3.6778
C 5.8701 -2.6914 2.9366
C 5.5543 -1.8754 1.8473
C 6.2703 -0.6681 -1.7007
C 7.6107 -0.9184 -2.1696
C 8.8812 -0.5609 -1.4356
C 7.8042 -1.5222 -3.4189
C 6.7181 -1.8852 -4.2039
C 5.4129 -1.6581 -3.7465
C 5.1783 -1.0463 -2.4960
H 0.2064 0.1130 2.6349
H -0.1498 1.8343 2.7220
H 2.6278 0.6420 1.8962
H 2.1696 1.3820 3.4363
H 2.1786 2.3955 1.9388
H 1.6721 1.8607 -2.1358
H 0.0038 2.2878 -1.4866
H 0.5970 0.9549 -4.1978
H 0.1375 2.6848 -3.9408
H -1.0310 1.3646 -3.5457
H -1.2266 -1.6037 -0.4247
H -1.4827 -0.6122 1.0698
H -1.0689 -3.5991 1.0432
H -2.5845 -2.6604 1.3532
H -1.2107 -2.5323 2.5120
H 5.0308 1.2276 2.1892
H 4.5184 2.9232 2.2124
H 5.9865 2.4108 3.1299
H 6.5046 4.6324 1.7892
H 7.8487 5.4382 -0.0970
H 8.3702 3.9345 -1.9874
H 7.5593 1.6511 -2.0118
H 8.4726 1.2142 1.2281
H 9.5955 0.0152 1.8349
H 8.7205 1.1265 2.9564
H 8.7490 -1.2400 3.9361
H 7.2783 -3.0971 4.5110
H 5.2299 -3.5230 3.1999
H 4.6597 -2.1012 1.2808
H 8.6989 0.0079 -0.5263
H 9.5190 0.0749 -2.0921
H 9.4605 -1.4684 -1.1657
H 8.8110 -1.7036 -3.7905
H 6.9003 -2.3416 -5.1717
H 4.5891 -1.9611 -4.3758
H 4.1495 -0.8483 -2.1132
