34
 
N -1.4090 -0.0828 -0.0391
C -0.7532 1.1188 0.0938
C 0.6238 1.2124 -0.0432
C 1.3974 0.0943 -0.0508
N 2.8224 0.1852 -0.2031
C 3.5686 1.3447 0.2637
C 3.5502 -0.8809 -0.8669
C 0.7308 -1.1234 0.1025
C -0.6534 -1.2106 -0.0462
Ag -3.4787 -0.2021 -0.2872
N -5.5491 -0.3595 -0.5358
C -6.2004 -1.5725 -0.5952
N -7.4986 -1.6842 -1.0325
C -8.2610 -0.5802 -1.1925
O -9.5531 -0.6650 -1.6506
C -10.1305 -1.8851 -1.9795
C -7.6859 0.6496 -0.8535
C -6.3025 0.7615 -0.6780
H -1.2904 2.0097 0.2849
H 1.0544 2.1465 -0.1301
H 2.9541 2.0800 0.7312
H 4.0700 1.8502 -0.5554
H 4.3014 1.0514 1.0100
H 2.9016 -1.6740 -1.1870
H 4.2845 -1.3169 -0.1973
H 4.0532 -0.5167 -1.7616
H 1.2673 -1.9946 0.3094
H -1.1192 -2.1644 -0.1424
H -5.6892 -2.4585 -0.3036
H -11.1595 -1.7743 -2.3184
H -10.1259 -2.5538 -1.1119
H -9.5577 -2.3652 -2.7789
H -8.3039 1.4982 -0.7658
H -5.8441 1.7234 -0.6267
