74
 
P 1.0550 0.0365 0.0751
C 0.0944 1.6610 0.4118
C 0.1506 2.2647 1.8639
C 1.5501 2.7724 2.2989
C 2.1520 3.7601 1.2854
C 2.0982 3.1652 -0.1204
C 0.6291 2.8202 -0.4620
C 0.8027 -0.3225 -1.8724
C 1.4649 0.5790 -2.9623
C 2.9894 0.4648 -2.9672
C 3.4366 -0.9859 -3.2040
C 2.7445 -1.9472 -2.2285
C 1.2212 -1.7459 -2.4008
C 0.3743 -1.0594 1.4873
C -1.1773 -1.1760 1.4291
C -1.6354 -1.9232 0.1656
C -1.0454 -3.3400 0.1128
C 0.4787 -3.3865 0.4155
C 0.8954 -2.5303 1.5999
Ag 3.5150 0.0365 0.0751
C 5.6650 0.0365 0.0751
N 6.5495 1.0553 -0.1296
C 6.2842 2.4590 -0.4168
C 7.7902 0.5021 -0.0218
C 9.1184 1.1999 -0.1714
C 7.6525 -0.8396 0.2521
C 8.7719 -1.8317 0.4449
N 6.3333 -1.1200 0.3164
C 5.7329 -2.4227 0.5874
H -0.9706 1.4863 0.1611
H -0.2561 1.5736 2.6248
H -0.5192 3.1601 1.8761
H 2.2277 1.9050 2.4098
H 1.4802 3.2940 3.2830
H 3.2015 4.0074 1.5668
H 1.5788 4.7155 1.2827
H 2.7427 2.2647 -0.1662
H 2.5057 3.9050 -0.8415
H 0.4904 2.5882 -1.4917
H 0.0123 3.7380 -0.3408
H -0.2789 -0.2358 -2.0821
H 1.1670 1.6142 -2.9998
H 1.0941 0.2437 -3.9631
H 3.3748 0.8382 -2.0053
H 3.3911 1.0979 -3.7863
H 4.5413 -1.0667 -3.1361
H 3.1462 -1.2828 -4.2397
H 3.0656 -1.7578 -1.1732
H 3.0366 -2.9846 -2.5073
H 0.5667 -2.5662 -2.0928
H 0.9948 -1.8716 -3.4867
H 0.6602 -0.5694 2.4390
H -1.6544 -0.1810 1.4747
H -1.5473 -1.7435 2.3136
H -1.3289 -1.3607 -0.7138
H -2.7458 -1.9761 0.1130
H -1.2679 -3.7896 -0.8850
H -1.5714 -3.9523 0.8729
H 1.1203 -2.9681 -0.3168
H 0.8051 -4.4448 0.4850
H 2.0022 -2.5552 1.6987
H 0.4651 -3.0127 2.5054
H 5.1979 2.6622 -0.4570
H 6.7460 2.7267 -1.3926
H 6.7497 3.0888 0.3730
H 9.0175 2.2794 -0.3908
H 9.6941 0.7250 -0.9961
H 9.7040 1.0835 0.7668
H 9.7697 -1.3569 0.3396
H 8.6989 -2.6350 -0.3174
H 8.7136 -2.2770 1.4593
H 6.5152 -3.1964 0.7463
H 5.1095 -2.7364 -0.2731
H 5.1133 -2.3668 1.5051
