67
 
P 1.0830 0.0548 0.0106
C 0.4764 1.1117 -1.5207
C 0.8554 2.6471 -1.5583
C 2.3892 2.8728 -1.5008
C 3.0404 2.2783 -2.7537
C 2.6319 0.8127 -2.9329
C 1.0972 0.6557 -2.8810
C 0.4700 -1.7024 -0.3896
C 0.7211 -2.5914 -1.6640
C 2.1283 -3.2082 -1.7563
C 2.4890 -3.9377 -0.4571
C 2.3337 -2.9822 0.7208
C 0.8523 -2.5959 0.8032
C 0.5511 0.4129 1.8508
C 0.7930 1.7821 2.5240
C -0.0872 2.8581 1.9159
C -1.5896 2.4883 1.8171
C -1.8477 1.0530 1.3328
C -0.9625 0.0913 2.1145
Ag 3.5430 0.0548 0.0106
N 5.6430 0.0548 0.0106
C 6.3031 -0.3402 1.1287
N 7.6558 -0.2442 1.1892
C 8.3747 0.2402 0.1383
O 9.7188 0.3789 0.2204
C 10.4387 0.1437 1.3730
C 7.7112 0.6249 -1.0290
C 6.3204 0.5252 -1.0681
H -0.6221 1.0356 -1.6146
H 0.3202 3.3027 -0.8859
H 0.4701 3.1062 -2.5019
H 2.8453 2.3890 -0.5800
H 2.6001 3.9718 -1.5166
H 4.1459 2.3773 -2.6925
H 2.7138 2.8508 -3.6530
H 3.0892 0.1890 -2.1468
H 3.0182 0.4621 -3.9148
H 0.8278 -0.3456 -3.1445
H 0.6642 1.2600 -3.7145
H -0.6320 -1.5566 -0.3741
H 0.4082 -2.1791 -2.6243
H 0.0234 -3.4558 -1.5716
H 2.8756 -2.4167 -1.9556
H 2.1558 -3.9491 -2.5891
H 3.5234 -4.3327 -0.5072
H 1.8075 -4.8087 -0.2976
H 2.9969 -2.0909 0.5912
H 2.6193 -3.5040 1.6543
H 0.6378 -2.1354 1.7668
H 0.2197 -3.5105 0.8128
H 1.1392 -0.2742 2.4901
H 1.8659 2.0613 2.4892
H 0.5124 1.7074 3.6027
H 0.3564 2.9598 0.9704
H 0.0301 3.8313 2.4350
H -2.1232 3.2025 1.1494
H -2.0286 2.5735 2.8310
H -1.6372 0.9219 0.2629
H -2.9245 0.8065 1.4747
H -1.2355 -0.9525 1.8696
H -1.2091 0.2113 3.1999
H 5.7488 -0.7024 1.9833
H 11.5127 0.3442 1.1829
H 10.3177 -0.9127 1.6931
H 10.0909 0.8214 2.1835
H 8.2572 1.0183 -1.8773
H 5.7793 0.8447 -1.9463
