102
 
P 1.0231 0.0586 -0.0776
C 0.2790 -0.3045 1.5965
C -0.8848 0.2541 2.1624
C -1.1768 0.0543 3.5367
C -0.3190 -0.6890 4.3598
C 0.8096 -1.2603 3.8110
C 1.0725 -1.0622 2.4644
C 0.1974 1.7611 -0.2558
C 0.4066 2.8161 0.6789
C 0.0895 4.1514 0.3439
C -0.5160 4.4545 -0.8741
C -0.8496 3.4237 -1.7503
C -0.4978 2.0901 -1.4519
C 0.3091 -1.2687 -1.1687
C -0.5104 -2.2942 -0.6548
C -0.9824 -3.3234 -1.4825
C -0.6475 -3.3521 -2.8358
C 0.1488 -2.3397 -3.3720
C 0.6210 -1.3002 -2.5499
Ag 3.4831 0.0586 -0.0776
C 5.6331 0.0586 -0.0776
N 6.3835 -1.0649 -0.2674
C 6.0432 -2.5673 -0.2957
C 6.8017 -3.6522 -0.9345
C 8.0360 -3.5603 -1.7906
C 8.0699 -2.4340 -2.8244
C 9.2385 -3.7118 -0.8801
C 6.3956 -5.0300 -0.8109
C 5.2944 -5.4341 -0.1081
C 4.5299 -4.4896 0.4471
C 4.8756 -3.1293 0.3340
C 3.8143 -2.3213 0.6914
C 4.2849 -1.3914 1.8709
C 3.3316 -2.0875 -0.7894
C 7.7656 -0.6167 -0.1379
C 7.7370 0.8801 -0.3235
N 6.4097 1.2650 -0.0010
C 6.0071 2.5847 0.4609
C 4.8420 3.2326 -0.0584
C 4.0783 2.6739 -1.2522
C 2.7802 2.3728 -0.7312
C 3.7744 3.6117 -2.4488
C 4.3336 4.3893 0.5920
C 4.9550 4.9235 1.6956
C 6.1485 4.3930 2.1295
C 6.7284 3.2622 1.5225
C 8.0794 2.8570 2.1253
C 8.0071 1.4622 2.7909
C 9.3037 3.2107 1.1891
H -1.5450 0.8673 1.5752
H -2.0509 0.4989 3.9843
H -0.5107 -0.8225 5.4190
H 1.5027 -1.8367 4.4220
H 1.9267 -1.4915 2.1155
H 0.9572 2.6449 1.5911
H 0.3822 4.9672 0.9961
H -0.7089 5.4909 -1.1470
H -1.3272 3.6787 -2.6921
H -0.7045 1.3438 -2.2049
H -0.7837 -2.3214 0.3867
H -1.6011 -4.1112 -1.0713
H -1.0029 -4.1619 -3.4658
H 0.4062 -2.3751 -4.4254
H 1.2501 -0.5398 -2.9942
H 8.0819 -4.4625 -2.4538
H 7.9249 -1.4353 -2.4522
H 7.2451 -2.5296 -3.5530
H 9.0545 -2.4571 -3.3345
H 9.2985 -2.8764 -0.1709
H 10.1591 -3.7950 -1.4856
H 9.1277 -4.6514 -0.2866
H 6.9365 -5.8446 -1.2687
H 4.9846 -6.4699 -0.0287
H 3.6060 -4.8309 0.9186
H 2.9562 -2.8782 1.1229
H 5.3447 -1.1033 1.9071
H 4.2702 -1.9998 2.7968
H 3.7043 -0.4636 2.0459
H 3.8180 -1.3011 -1.4181
H 2.4187 -1.7882 -0.5821
H 3.1184 -3.0024 -1.4295
H 8.6331 -0.9431 -0.7145
H 8.0677 -0.9006 0.8928
H 7.9709 1.2782 -1.3382
H 8.4741 1.1431 0.3712
H 4.5182 1.7315 -1.6328
H 2.2910 3.3283 -0.5487
H 2.8270 1.9010 0.2748
H 2.2323 1.8323 -1.5301
H 3.1749 4.5029 -2.1362
H 3.1139 3.0766 -3.1825
H 4.6845 3.9338 -2.9611
H 3.4212 4.8852 0.2846
H 4.5199 5.7758 2.2042
H 6.6193 4.8778 2.9734
H 8.3190 3.5185 2.9827
H 7.5255 0.6810 2.1985
H 7.3352 1.5001 3.6711
H 9.0145 1.1136 3.0963
H 9.4803 2.7801 0.1835
H 10.2488 3.0068 1.7325
H 9.2620 4.2855 0.9246
