69
 
P 0.9246 -0.0649 0.0099
C 0.2452 1.4331 -0.7635
C -1.0992 1.7066 -1.0651
C -1.4377 2.9169 -1.7059
C -0.4518 3.8607 -2.0233
C 0.8741 3.6157 -1.6818
C 1.2154 2.4142 -1.0606
C 0.6356 -1.2974 -1.3108
C 1.7287 -1.9895 -1.8617
C 1.5256 -3.0609 -2.7496
C 0.2322 -3.4543 -3.1009
C -0.8649 -2.7770 -2.5673
C -0.6700 -1.7076 -1.6740
C 0.3720 -0.1424 1.7328
C -1.0048 -0.2196 2.0209
C -1.4561 -0.2982 3.3439
C -0.5382 -0.3173 4.3941
C 0.8351 -0.2815 4.1199
C 1.2958 -0.1969 2.7902
Ag 3.3846 -0.0649 0.0099
P 5.8446 -0.0649 0.0099
O 6.8892 1.2990 0.0089
C 6.3086 2.3372 0.8263
C 6.9825 3.6976 0.5701
C 4.7762 2.5973 0.6765
O 6.2530 -0.4266 1.6249
C 5.8400 -1.7303 1.9841
C 6.3829 -2.8541 1.0674
C 6.3616 -1.9768 3.4022
O 6.4478 -0.6504 -1.4825
C 5.8484 -0.0713 -2.6181
C 6.2711 1.3915 -2.8149
C 6.3649 -0.8638 -3.8285
H -1.8802 1.0047 -0.8270
H -2.4652 3.1311 -1.9658
H -0.7104 4.7854 -2.5279
H 1.6403 4.3516 -1.9049
H 2.2550 2.2499 -0.8088
H 2.7388 -1.7279 -1.5728
H 2.3699 -3.6076 -3.1510
H 0.0803 -4.2940 -3.7737
H -1.8656 -3.1054 -2.8307
H -1.5455 -1.2424 -1.2453
H -1.7363 -0.2266 1.2251
H -2.5186 -0.3465 3.5569
H -0.8951 -0.3698 5.4181
H 1.5345 -0.3204 4.9457
H 2.3647 -0.1820 2.5760
H 6.5200 2.0681 1.8788
H 6.7421 4.1013 -0.4400
H 8.0813 3.6479 0.6912
H 6.5947 4.4320 1.3141
H 4.5136 2.9798 -0.3343
H 4.4546 3.3469 1.4278
H 4.1536 1.7172 0.9074
H 4.7290 -1.7674 2.0177
H 7.4915 -2.8164 1.0045
H 5.9631 -2.7879 0.0431
H 6.0794 -3.8476 1.4619
H 7.4747 -1.9574 3.4145
H 6.0182 -2.9611 3.7847
H 5.9930 -1.1832 4.0857
H 4.7372 -0.1723 -2.5813
H 7.3803 1.4779 -2.7817
H 5.8277 2.0410 -2.0418
H 5.9093 1.7710 -3.7921
H 7.4762 -0.7988 -3.8887
H 5.9413 -0.4594 -4.7719
H 6.0897 -1.9364 -3.7483
