58
 
P 0.9471 0.0582 -0.0618
C 0.2007 -0.7019 -1.5744
C -1.3174 -0.7732 -1.6432
C 0.7677 0.0196 -2.8085
C 0.4003 -0.9405 1.3795
C 0.8865 -2.3847 1.3533
C 0.8417 -0.2490 2.6770
C 0.4782 1.8135 -0.1710
Au 3.4071 0.0582 -0.0618
P 5.8671 0.0582 -0.0618
N 6.8713 1.3212 -0.8000
C 6.2963 1.5278 -2.1513
C 6.6001 2.6028 -0.0821
O 6.1900 -1.2270 -1.0384
C 6.2662 -2.4210 -0.4190
C 5.4413 -3.4384 -0.9085
C 5.4263 -4.6943 -0.3085
C 6.2609 -4.9587 0.7741
C 7.1160 -3.9672 1.2611
C 7.1302 -2.6727 0.6962
C 8.0724 -1.6552 1.2925
C 9.4071 -2.0505 1.5231
C 10.3428 -1.1577 2.0513
C 9.9591 0.1338 2.4026
C 8.6415 0.5405 2.2243
C 7.6985 -0.3225 1.6586
O 6.4554 0.1615 1.4755
H 0.5869 -1.7433 -1.6315
H -1.7695 0.2328 -1.5622
H -1.7068 -1.4497 -0.8571
H -1.6042 -1.2115 -2.6280
H 0.4039 1.0645 -2.8681
H 0.4641 -0.4998 -3.7416
H 1.8814 0.0290 -2.7747
H -0.7111 -0.9447 1.3619
H 1.9880 -2.4356 1.4800
H 0.5887 -2.8798 0.4093
H 0.4036 -2.9391 2.1898
H 1.9499 -0.1836 2.7332
H 0.4687 -0.8070 3.5631
H 0.4229 0.7799 2.7320
H -0.6321 1.8779 -0.1651
H 0.8843 2.3146 -1.0663
H 0.8453 2.3339 0.7376
H 6.4338 0.6310 -2.7834
H 6.7738 2.3885 -2.6696
H 5.1938 1.7476 -2.1131
H 6.8988 2.5676 0.9820
H 5.5189 2.9026 -0.1059
H 7.1654 3.4447 -0.5419
H 4.7877 -3.2406 -1.7490
H 4.7624 -5.4620 -0.6834
H 6.2423 -5.9358 1.2399
H 7.7471 -4.2071 2.1086
H 9.7402 -3.0470 1.2591
H 11.3707 -1.4669 2.1862
H 10.6829 0.8265 2.8104
H 8.3540 1.5458 2.5025
