67
 
P 0.9247 -0.0541 0.0375
C 0.0883 -0.3446 1.6259
C -1.2894 -0.2621 1.8073
C -1.8575 -0.4716 3.0542
C -1.0736 -0.8250 4.1647
O -1.6337 -1.0333 5.3865
C -2.9741 -0.8239 5.6628
C 0.3101 -0.9706 3.9914
C 0.8888 -0.7195 2.7343
C 0.4722 1.6625 -0.3041
C 1.4751 2.5991 -0.5416
C 1.1471 3.9243 -0.8185
C -0.1966 4.3466 -0.8676
O -0.5299 5.6500 -1.0546
C 0.3934 6.6776 -1.0828
C -1.2079 3.3939 -0.7160
C -0.8751 2.0623 -0.4576
C 0.6221 -1.5640 -0.9229
C -0.6741 -2.0028 -1.2631
C -0.8554 -3.1648 -2.0258
C 0.2507 -3.9101 -2.4751
O 0.1013 -5.0509 -3.2086
C -1.1084 -5.6686 -3.4862
C 1.5434 -3.4558 -2.1529
C 1.7250 -2.2917 -1.3799
Au 3.3847 -0.0541 0.0375
N 5.4847 -0.0541 0.0375
C 6.0988 0.9351 0.7223
C 5.2388 1.9306 1.4259
C 7.4994 0.9898 0.7668
C 8.2475 0.0144 0.0870
C 9.7483 0.0367 0.1077
C 7.5783 -0.9951 -0.6184
C 6.1767 -1.0175 -0.6278
C 5.4267 -2.0775 -1.3678
H -1.9574 -0.0373 1.0127
H -2.9259 -0.3592 3.1333
H -3.1995 -1.0861 6.7141
H -3.6045 -1.4598 5.0037
H -3.2302 0.2468 5.4961
H 0.9367 -1.2705 4.8277
H 1.9637 -0.8365 2.6297
H 2.5157 2.3075 -0.5260
H 1.9546 4.6181 -0.9846
H -0.1177 7.6521 -1.2015
H 1.0894 6.5321 -1.9349
H 0.9706 6.6936 -0.1296
H -2.2548 3.6764 -0.7899
H -1.6896 1.3711 -0.3933
H -1.5566 -1.4601 -0.9548
H -1.8635 -3.4775 -2.2677
H -0.9468 -6.5666 -4.1188
H -1.7826 -4.9790 -4.0375
H -1.5969 -5.9907 -2.5402
H 2.4093 -4.0081 -2.4988
H 2.7170 -1.9343 -1.1291
H 4.1547 1.6795 1.2614
H 5.4537 2.9433 1.0273
H 5.4705 1.9115 2.5132
H 7.9967 1.7750 1.3227
H 10.1349 0.8905 0.7033
H 10.1374 0.1271 -0.9286
H 10.1306 -0.9047 0.5562
H 8.1424 -1.7527 -1.1507
H 6.1126 -2.7909 -1.8721
H 4.7817 -1.6060 -2.1390
H 4.7982 -2.6425 -0.6505
