64
 
P 1.0002 0.0830 0.0558
C 0.2557 -0.6032 1.6018
C -1.2618 -0.6069 1.6959
C 0.8214 -2.0156 1.8265
C 0.4524 1.8296 -0.0852
C 0.9469 2.7254 1.0439
C 0.8843 2.3901 -1.4470
C 0.5269 -1.1106 -1.2343
Au 3.4602 0.0830 0.0558
P 5.9202 0.0830 0.0558
C 6.5332 -1.2327 -1.0760
C 7.3636 -1.0219 -2.1973
C 7.6080 -2.0695 -3.1114
C 7.0228 -3.3261 -2.9308
C 6.2045 -3.5515 -1.8276
C 5.9634 -2.5185 -0.9097
C 6.2463 1.7124 -0.6602
C 5.1620 2.5382 -0.9870
C 5.4171 3.8356 -1.5034
C 6.7354 4.3032 -1.6581
C 7.8079 3.4894 -1.2947
C 7.5678 2.2001 -0.7987
C 6.4864 -0.2234 1.7771
C 6.1398 0.6824 2.8239
O 5.3171 1.7378 2.5688
C 4.9385 2.6948 3.4977
C 6.6847 0.4946 4.1180
C 7.5612 -0.5509 4.3785
C 7.9013 -1.4383 3.3625
C 7.3696 -1.2820 2.0734
H 0.6424 0.0139 2.4425
H -1.7116 -1.1876 0.8692
H -1.6470 0.4316 1.7082
H -1.5527 -1.0810 2.6623
H 0.4583 -2.7238 1.0554
H 0.5164 -2.4081 2.8192
H 1.9355 -1.9964 1.7983
H -0.6589 1.8208 -0.0658
H 2.0497 2.8431 1.0028
H 0.6440 2.3168 2.0271
H 0.4741 3.7279 0.9372
H 1.9886 2.3916 -1.5429
H 0.5130 3.4290 -1.5788
H 0.4627 1.7765 -2.2728
H -0.5835 -1.1436 -1.2868
H 0.9305 -2.1222 -1.0573
H 0.8932 -0.7363 -2.2126
H 7.7966 -0.0567 -2.4008
H 8.2286 -1.9083 -3.9844
H 7.1881 -4.1215 -3.6531
H 5.7347 -4.5223 -1.7025
H 5.2829 -2.7184 -0.0913
H 4.1385 2.1396 -0.8006
H 4.6076 4.5003 -1.7752
H 6.9341 5.3021 -2.0432
H 8.8244 3.8654 -1.3912
H 8.4194 1.5989 -0.5049
H 4.2746 3.4410 3.0186
H 5.8309 3.2273 3.8974
H 4.3869 2.2214 4.3398
H 6.4561 1.1664 4.9366
H 7.9846 -0.6624 5.3716
H 8.5963 -2.2396 3.5783
H 7.6816 -1.9768 1.3093
