76
 
P 0.9734 0.0650 0.0711
C 0.4739 0.9618 1.6830
C -0.8298 1.2830 2.2266
C -2.1236 0.8096 1.6645
C -0.9489 2.0056 3.4525
C 0.1760 2.3776 4.1924
C 0.1154 3.1219 5.4977
C 1.4160 2.0198 3.7304
C 1.5748 1.3418 2.5241
C 2.9777 1.0060 2.1937
C 0.4449 1.0921 -1.4954
C 1.4085 1.9591 -2.1327
C 2.7842 2.2682 -1.6297
C 1.1336 2.6077 -3.3569
C -0.0479 2.4117 -4.0417
C -0.3463 3.0544 -5.3612
C -0.9954 1.5910 -3.5084
C -0.8354 0.9438 -2.2678
C -2.0791 0.0747 -2.0313
C 0.4279 -1.6519 0.4444
C 0.0733 -2.4801 -0.6923
C 0.1215 -2.1211 -2.1609
C -0.4003 -3.7708 -0.5056
C -0.5159 -4.3110 0.7535
C -1.0329 -5.6969 0.9153
C -0.1586 -3.5599 1.8638
C 0.2937 -2.2387 1.7501
C 0.5585 -1.5617 3.0693
Au 3.4334 0.0650 0.0711
N 5.5334 0.0650 0.0711
C 6.2008 0.6359 -0.9632
N 7.5525 0.5387 -1.0355
C 8.2660 -0.1038 -0.0694
O 9.6099 -0.2377 -0.1745
C 10.3276 0.1556 -1.2863
C 7.5961 -0.6522 1.0287
C 6.2035 -0.5625 1.0713
H -1.9469 0.0511 0.8989
H -2.7488 1.6612 1.3257
H -2.6760 0.2804 2.4785
H -1.9248 2.2474 3.8624
H -0.9229 3.3504 5.8046
H 0.6824 4.0754 5.4002
H 0.6052 2.5166 6.2940
H 2.2831 2.2790 4.3313
H 3.7118 1.2831 2.9711
H 3.1893 1.6495 1.3377
H 3.0888 -0.0984 2.0308
H 3.0626 1.8019 -0.7222
H 2.8333 3.3679 -1.4596
H 3.5375 1.9902 -2.3906
H 1.8752 3.2556 -3.8092
H 0.4634 3.7378 -5.6799
H -1.2923 3.6289 -5.2579
H -0.4949 2.2678 -6.1360
H -1.8854 1.4488 -4.1229
H -2.9551 0.4417 -2.6250
H -2.5287 0.1033 -1.0464
H -2.0991 -0.8401 -2.6380
H 0.3812 -1.1068 -2.3716
H -0.8492 -2.3939 -2.6228
H 0.8681 -2.6837 -2.7414
H -0.6969 -4.3632 -1.3676
H -1.3268 -6.1367 -0.0627
H -1.9250 -5.6744 1.5734
H -0.2328 -6.3176 1.3623
H -0.2674 -4.0093 2.8402
H 0.4546 -2.2322 3.9403
H -0.2178 -0.8143 3.2694
H 1.5773 -1.1616 3.1267
H 5.6549 1.1217 -1.7574
H 11.4038 -0.0626 -1.1300
H 10.2013 1.2452 -1.4573
H 9.9824 -0.4037 -2.1843
H 8.1360 -1.1623 1.8168
H 5.6514 -1.0047 1.8903
