55
 
P 1.0124 -0.0273 -0.0954
C 0.1757 1.5377 0.3090
C 0.9106 2.6735 0.8167
C 2.3842 2.6894 1.1833
C 0.2334 3.8826 1.0480
C -1.1358 3.9784 0.8308
C -1.8524 2.8647 0.3967
C -1.2034 1.6568 0.1398
C 0.5021 -0.0453 -1.8833
C 1.2442 0.4657 -2.9826
C 2.5926 1.0647 -2.8526
C 0.7203 0.4042 -4.2888
C -0.5063 -0.1956 -4.5445
C -1.2288 -0.7513 -3.4964
C -0.7349 -0.6778 -2.1842
C 0.6896 -1.4015 1.0697
C 1.2090 -2.7125 0.8477
C 2.2575 -3.0344 -0.1839
C 0.7301 -3.7893 1.6186
C -0.2055 -3.5817 2.6282
C -0.6219 -2.2865 2.9288
C -0.1769 -1.2019 2.1603
Au 3.4724 -0.0273 -0.0954
N 5.5724 -0.0273 -0.0954
C 6.2128 0.8385 -0.9249
C 7.6038 0.7994 -1.0420
C 8.3253 -0.1328 -0.2917
Cl 10.0696 -0.2285 -0.4525
C 7.6489 -0.9993 0.5729
C 6.2544 -0.9311 0.6569
H 2.8789 1.7102 1.1024
H 2.4898 3.0037 2.2505
H 2.9422 3.4351 0.5762
H 0.7676 4.7564 1.4136
H -1.6438 4.9157 1.0168
H -2.9185 2.9370 0.2502
H -1.7787 0.8141 -0.2001
H 3.0105 0.8310 -1.8923
H 2.5255 2.1584 -3.0020
H 3.2750 0.6073 -3.6016
H 1.2822 0.8059 -5.1238
H -0.8830 -0.2417 -5.5610
H -2.1747 -1.2382 -3.7097
H -1.3325 -1.1309 -1.4025
H 2.5975 -2.1505 -0.7510
H 1.8852 -3.8086 -0.8844
H 3.1553 -3.4410 0.3386
H 1.0672 -4.8026 1.4227
H -0.5967 -4.4258 3.1861
H -1.3217 -2.1312 3.7396
H -0.5472 -0.2158 2.3990
H 5.6355 1.5328 -1.5212
H 8.1111 1.4721 -1.7221
H 8.1948 -1.7294 1.1566
H 5.7128 -1.6108 1.3013
