84
 
P 0.9800 -0.0908 0.0369
C 0.0524 0.4207 1.6898
C -1.3893 0.6758 1.7814
C -2.3425 0.8144 0.6511
C -2.0782 0.6270 3.0184
C -1.4418 0.3819 4.2139
C -2.2181 0.2254 5.4999
C -0.0750 0.2374 4.2118
C 0.6976 0.2529 3.0156
C 2.1487 -0.0882 3.3164
C 0.6928 1.2699 -1.2629
C 1.1788 2.6299 -1.1639
C 1.5592 3.3534 0.0976
C 1.2519 3.4517 -2.3085
C 0.7992 3.0235 -3.5458
C 0.9641 3.9006 -4.7637
C 0.1185 1.8122 -3.6100
C 0.0023 0.9699 -2.4846
C -0.9674 -0.1868 -2.6390
C 0.5771 -1.8587 -0.4193
C -0.3598 -2.6911 0.3213
C -1.1623 -2.3676 1.5322
C -0.6854 -3.9622 -0.1053
C -0.1406 -4.4944 -1.2449
C -0.5285 -5.8766 -1.6455
C 0.7288 -3.7307 -2.0195
C 1.0899 -2.4172 -1.6550
C 1.9090 -1.6473 -2.6964
Au 3.4400 -0.0908 0.0369
P 5.9000 -0.0908 0.0369
C 6.8111 0.8518 1.3008
C 6.3405 -1.7284 0.6892
C 6.4801 0.4022 -1.6399
C 5.9895 1.8215 -1.9662
C 8.0221 0.3753 -1.6711
C 5.9372 -0.5773 -2.6836
H -1.8237 0.9121 -0.2901
H -2.9744 1.7162 0.8114
H -3.0272 -0.0675 0.6510
H -3.1603 0.7113 3.0461
H -3.3136 0.3254 5.3405
H -1.8898 0.9934 6.2266
H -2.0400 -0.7844 5.9403
H 0.3728 0.0281 5.1832
H 2.3805 0.1134 4.4009
H 2.8770 0.5381 2.7654
H 2.3104 -1.1856 3.2737
H 1.3479 2.7818 1.0144
H 0.8849 4.2524 0.1443
H 2.5927 3.7523 0.0679
H 1.6702 4.4520 -2.2364
H 1.4898 4.8497 -4.5162
H -0.0262 4.1561 -5.1891
H 1.5737 3.3849 -5.5394
H -0.3358 1.5203 -4.5498
H -1.1278 -0.5244 -3.6768
H -1.9359 0.1365 -2.2253
H -0.8454 -1.0349 -2.0121
H -0.8522 -1.5279 1.9246
H -0.9792 -2.9770 2.4300
H -2.2427 -2.2449 1.2840
H -1.3992 -4.5481 0.4718
H -1.3013 -6.2984 -0.9626
H 0.3715 -6.5186 -1.5921
H -0.9415 -5.8604 -2.6723
H 1.0815 -4.1593 -2.9470
H 2.1336 -2.2754 -3.5905
H 2.8115 -1.1523 -2.2756
H 1.3346 -0.8687 -3.2042
H 6.4188 0.5761 2.3044
H 6.5274 1.9203 1.1531
H 7.9065 0.7504 1.2645
H 5.9435 -1.9112 1.7028
H 7.4525 -1.8043 0.6973
H 5.9720 -2.4982 -0.0214
H 6.3979 2.5591 -1.2436
H 4.8797 1.8679 -1.9358
H 6.3239 2.1209 -2.9843
H 8.4494 1.0859 -0.9328
H 8.4061 0.6726 -2.6698
H 8.4062 -0.6406 -1.4362
H 4.8343 -0.5619 -2.6727
H 6.2874 -1.6113 -2.4773
H 6.2802 -0.2908 -3.7019
