58
 
P 1.0480 -0.0820 0.0312
C 0.2976 -1.9009 -0.1766
C -1.2384 -1.9995 -0.1918
C 0.7129 -2.7060 -1.4587
C 0.8409 -2.7987 0.9609
C 0.5737 0.5195 1.8955
C 1.2810 -0.3304 2.9656
C 0.9351 1.9716 2.3952
C -0.9595 0.5331 2.1500
C 0.5806 0.9504 -1.4737
C 1.1030 2.4563 -1.5855
C 2.6461 2.4325 -1.5351
C 0.6346 3.0906 -2.9131
C 0.5993 3.4427 -0.5215
Au 3.5080 -0.0820 0.0312
N 5.6080 -0.0820 0.0312
C 6.2446 1.1177 -0.0216
C 7.6315 1.1740 -0.1671
C 8.3623 -0.0179 -0.2625
C 9.8433 0.0102 -0.5046
C 7.6870 -1.2436 -0.1672
C 6.2949 -1.2539 -0.0243
H -1.6628 -1.5380 -1.1000
H -1.7427 -1.5956 0.6576
H -1.5489 -3.0694 -0.1311
H 0.4321 -2.2117 -2.4055
H 0.1474 -3.6816 -1.4715
H 1.7686 -3.0536 -1.4812
H 0.2727 -2.6313 1.8670
H 1.9483 -2.6783 1.0779
H 0.6440 -3.8828 0.8204
H 2.3689 -0.3641 2.7516
H 0.8879 -1.3151 3.1285
H 1.1163 0.0775 3.9866
H 2.0189 2.2006 2.4482
H 0.5840 2.1155 3.4487
H 0.2920 2.7837 2.0162
H -1.4314 -0.4310 2.1522
H -1.4811 1.2507 1.4704
H -1.1991 0.8323 3.1933
H -0.5287 0.9603 -1.5483
H 0.9725 0.4126 -2.3591
H 3.0312 1.7998 -2.3445
H 3.0410 1.9597 -0.6033
H 3.0379 3.4750 -1.6499
H 0.9446 2.4653 -3.7667
H 1.0840 4.1066 -3.0405
H -0.4720 3.2314 -2.9327
H 1.1636 3.2145 0.3518
H -0.5124 3.4573 -0.4004
H 0.9195 4.4956 -0.7058
H 5.6674 2.0319 0.0146
H 8.1233 2.1365 -0.2342
H 10.2191 1.0511 -0.6085
H 10.0614 -0.5226 -1.4557
H 10.3866 -0.4874 0.3238
H 8.2288 -2.1788 -0.2373
H 5.7592 -2.1931 0.0070
