58
 
P 1.0037 0.0675 -0.0737
C 0.2528 -0.4898 1.6647
C -1.2823 -0.5417 1.7513
C 0.6905 -1.8978 2.1991
C 0.7791 0.4588 2.7688
C 0.5098 2.0093 -0.3217
C 1.1958 2.9095 0.7196
C 0.8702 2.7813 -1.6504
C -1.0271 2.2394 -0.3013
C 0.5537 -1.2109 -1.3737
C 1.1071 -1.0191 -2.8559
C 2.6506 -0.9803 -2.7882
C 0.6481 -2.1838 -3.7573
C 0.6208 0.2257 -3.6091
Au 3.4637 0.0675 -0.0737
N 5.5637 0.0675 -0.0737
C 6.2269 0.7774 0.8733
N 7.5792 0.8810 0.8210
C 8.2951 0.2745 -0.1667
O 9.6392 0.4252 -0.2402
C 10.3560 1.2594 0.5938
C 7.6273 -0.4887 -1.1297
C 6.2354 -0.5734 -1.0642
H -1.6947 -1.3459 1.1176
H -1.7897 0.3701 1.5181
H -1.5960 -0.7003 2.8103
H 0.4223 -2.7309 1.5256
H 0.1330 -2.1123 3.1549
H 1.7513 -1.9692 2.5240
H 0.2030 1.3765 2.7809
H 1.8846 0.6104 2.6774
H 0.5827 0.1024 3.8027
H 2.2872 2.7128 0.7172
H 0.7957 2.8683 1.7140
H 1.0162 3.9875 0.5135
H 1.9543 2.8656 -1.8692
H 0.5264 3.8453 -1.5918
H 0.2238 2.5599 -2.5207
H -1.4982 2.0651 0.6491
H -1.5320 1.6809 -1.1271
H -1.2868 3.3136 -0.4275
H -0.5558 -1.2772 -1.4169
H 0.9375 -2.1849 -1.0132
H 3.0244 -1.9073 -2.3315
H 3.0261 -0.1467 -2.1632
H 3.0652 -0.8688 -3.8180
H 0.9437 -3.1497 -3.3165
H 1.1145 -2.0994 -4.7699
H -0.4561 -2.1671 -3.9176
H 1.1935 1.0248 -3.2001
H -0.4906 0.3542 -3.6057
H 0.9487 0.2618 -4.6742
H 5.6753 1.2861 1.6514
H 11.4320 1.2146 0.3284
H 10.2312 0.9435 1.6508
H 10.0082 2.3098 0.4766
H 8.1689 -0.9817 -1.9277
H 5.6847 -1.1268 -1.8136
