56
 
P 1.0886 0.0148 0.0440
C 0.1230 0.2731 -1.4753
C 0.6556 -1.7456 0.1587
C 0.6983 1.3474 1.1269
C -0.6381 1.5780 1.4926
C -0.9533 2.6174 2.3639
C 0.0678 3.4277 2.8658
C 1.4109 3.1804 2.5114
C 1.7419 2.1190 1.6387
Au 3.5486 0.0148 0.0440
P 6.0086 0.0148 0.0440
N 6.9561 -1.1463 -0.9250
C 6.4895 -1.1258 -2.3160
C 8.4007 -1.3679 -0.8593
C 8.9192 -1.2420 0.5189
N 9.1093 0.1394 1.0593
C 8.6871 1.5125 0.6195
C 7.9966 1.7272 -0.7316
N 6.5239 1.4982 -0.7531
C 5.7404 2.6188 -0.2372
N 6.4126 -0.5710 1.7528
C 5.4495 -1.5174 2.3269
C 7.3792 0.0040 2.7827
C 8.9086 0.0274 2.4814
H -0.9686 0.2262 -1.3324
H 0.4625 -0.4572 -2.2445
H 0.4111 1.2766 -1.8647
H -0.4554 -1.8251 0.2020
H 1.0369 -2.1238 1.1314
H 1.0530 -2.3516 -0.6739
H -1.4342 0.9463 1.1129
H -1.9871 2.7912 2.6479
H -0.1910 4.2398 3.5361
H 2.1810 3.8153 2.9243
H 2.7880 1.8512 1.3336
H 5.3787 -1.0830 -2.3604
H 6.8016 -2.0535 -2.8411
H 6.9058 -0.2451 -2.8511
H 9.0109 -0.8149 -1.5916
H 8.5355 -2.4450 -1.1215
H 9.8878 -1.7782 0.6033
H 8.2528 -1.8884 1.1426
H 9.6181 2.1176 0.6286
H 8.0543 2.0346 1.3692
H 8.5283 1.2022 -1.5372
H 8.1698 2.7955 -0.9898
H 6.0303 3.5589 -0.7534
H 5.8669 2.7336 0.8586
H 4.6672 2.4420 -0.4672
H 4.4088 -1.2387 2.0749
H 5.4911 -1.5332 3.4411
H 5.6998 -2.5402 1.9840
H 7.0511 1.0130 3.0795
H 7.3874 -0.6140 3.7107
H 9.4575 -0.8774 2.8546
H 9.4192 0.8536 3.0307
