73
 
P 1.0660 -0.0304 0.0687
C 0.2977 -1.6082 0.4937
C -1.0692 -1.7179 0.8307
C -1.9778 -0.5446 1.0503
C -1.6425 -2.9847 0.9660
C -0.9018 -4.1508 0.7667
C -1.5695 -5.4895 0.8741
C 0.4598 -4.0629 0.4747
C 1.0895 -2.8111 0.3568
C 2.5828 -2.8232 0.0525
C 0.6891 0.8240 1.7825
C 0.6794 0.3073 3.1360
C 1.1933 -1.0278 3.5546
C 0.1193 1.0878 4.2062
C -0.3681 2.3847 3.9993
C -1.0167 3.2524 5.0421
C -0.2642 2.9206 2.7559
C 0.2213 2.1692 1.7022
C 0.2596 2.8698 0.4629
C 0.5984 0.4877 -1.7657
C -0.2013 -0.3798 -2.6360
C -0.6951 -1.7895 -2.4225
C -0.6343 0.0461 -3.9106
C -0.3461 1.2873 -4.4144
C -0.8207 1.7503 -5.7568
C 0.4192 2.1333 -3.6805
C 0.9367 1.8037 -2.4154
C 1.7734 3.0091 -1.9606
Au 3.5260 -0.0304 0.0687
O 5.5760 -0.0304 0.0687
C 5.9857 -1.1528 -0.6394
C 5.4864 -1.1034 -2.0653
C 7.5099 -1.2621 -0.5327
H -1.5220 0.4357 0.8973
H -2.3270 -0.5912 2.1042
H -2.8286 -0.5771 0.3493
H -2.6946 -3.0572 1.2006
H -2.6381 -5.3796 1.1572
H -1.0619 -6.0938 1.6519
H -1.5250 -6.0251 -0.0991
H 1.0260 -4.9796 0.3288
H 2.9835 -3.8596 -0.0588
H 3.1446 -2.3668 0.8948
H 2.8285 -2.2906 -0.8860
H 1.7374 -1.5385 2.7473
H 0.3533 -1.6454 3.9375
H 1.9112 -0.8675 4.3935
H 0.0527 0.6871 5.2104
H -1.1065 2.7444 6.0180
H -2.0406 3.5278 4.6898
H -0.4450 4.2005 5.1567
H -0.6024 3.9431 2.5946
H -0.0383 3.9376 0.4860
H -0.4058 2.3392 -0.2400
H 1.3519 2.8209 0.3123
H -0.4246 -2.3396 -1.5572
H -0.2867 -2.4262 -3.2352
H -1.8058 -1.8071 -2.4742
H -1.2300 -0.6102 -4.5364
H -1.3918 0.9655 -6.2891
H 0.0656 2.0327 -6.3660
H -1.4628 2.6488 -5.6255
H 0.6035 3.0996 -4.1461
H 2.0671 3.6955 -2.7911
H 2.7477 2.7505 -1.5155
H 1.1430 3.8128 -1.5228
H 5.5568 -2.0444 -0.1271
H 5.9380 -0.2439 -2.5976
H 4.3782 -0.9795 -2.0479
H 5.7653 -2.0512 -2.5786
H 7.9979 -0.3844 -1.0058
H 7.8770 -2.1931 -1.0124
H 7.8122 -1.2870 0.5398
