41
 
P 1.0933 0.0155 -0.0324
C 0.3270 1.2175 -1.2115
C -1.1931 1.2496 -1.2835
C 0.8921 2.6179 -0.9162
C 0.5311 -1.6616 -0.5419
C 0.9662 -2.0863 -1.9413
C 0.9953 -2.6876 0.5002
C 0.6616 0.6869 1.6034
Au 3.5533 0.0155 -0.0324
N 5.6533 0.0155 -0.0324
C 6.3591 -0.5426 -1.0610
O 5.7302 -1.0574 -2.1392
C 4.3636 -1.1147 -2.2420
C 7.7550 -0.6059 -0.9935
C 8.4120 -0.0990 0.1284
C 7.6731 0.4720 1.1645
C 6.2813 0.5192 1.0640
H 0.7027 0.9491 -2.2228
H -1.6394 1.4936 -0.3012
H -1.5790 0.2835 -1.6641
H -1.4936 2.0370 -2.0137
H 0.5316 3.0059 0.0574
H 0.5877 3.3407 -1.7016
H 2.0058 2.5890 -0.8988
H -0.5787 -1.6416 -0.5302
H 2.0427 -2.2757 -1.9850
H 0.6853 -1.3305 -2.6989
H 0.4703 -3.0450 -2.2047
H 2.1053 -2.7183 0.5596
H 0.6216 -3.7023 0.2446
H 0.5952 -2.4251 1.5039
H -0.4465 0.7206 1.6876
H 1.0876 1.6902 1.7793
H 1.0370 -0.0078 2.3824
H 4.0846 -1.5875 -3.2048
H 3.9332 -0.0894 -2.2272
H 3.9883 -1.7383 -1.4123
H 8.3235 -1.0587 -1.7961
H 9.4906 -0.1548 0.1979
H 8.1720 0.8621 2.0422
H 5.6944 0.9413 1.8689
