87
 
P 0.9879 -0.0760 -0.0638
C 0.2791 1.4118 -0.7918
C -1.0743 1.6624 -1.0349
C -1.4538 2.8519 -1.6722
C -0.4912 3.8135 -2.0529
O -0.8171 4.9377 -2.7425
C -2.0649 5.1932 -3.2737
C 0.8495 3.5914 -1.7335
C 1.2280 2.4020 -1.1137
C 0.6576 -1.2483 -1.3992
C 1.7322 -1.8936 -2.0104
C 1.5123 -2.8821 -2.9691
C 0.2054 -3.2568 -3.3380
O -0.0274 -4.1992 -4.2916
C 0.9564 -4.7555 -5.0895
C -0.8795 -2.6364 -2.7016
C -0.6570 -1.6404 -1.7362
C 0.4942 -0.2118 1.6511
C -0.8685 -0.3048 1.9555
C -1.2970 -0.3737 3.2750
C -0.3673 -0.3622 4.3288
O -0.7726 -0.3614 5.6298
C -2.0925 -0.2534 6.0420
C 1.0106 -0.3323 4.0196
C 1.4464 -0.2579 2.6770
Au 3.4479 -0.0760 -0.0638
P 5.9079 -0.0760 -0.0638
C 6.7459 -0.2510 -1.7345
C 7.9429 0.3901 -2.1409
C 8.5110 0.1320 -3.4085
C 7.9029 -0.7521 -4.3017
C 6.7164 -1.3793 -3.9409
C 6.1397 -1.1247 -2.6835
C 6.2784 1.6211 0.4623
C 6.4512 1.8892 1.8358
C 6.7917 3.1707 2.2773
C 6.9776 4.1988 1.3541
C 6.8238 3.9444 -0.0113
C 6.4717 2.6642 -0.4574
C 6.5065 -1.3597 1.1633
C 6.0880 -2.8373 0.9191
C 6.8203 -3.5062 -0.2571
C 8.3457 -3.4218 -0.0890
C 8.7846 -1.9747 0.1100
C 8.0527 -1.3107 1.3001
H -1.8368 0.9537 -0.7640
H -2.5005 3.0096 -1.8819
H -2.0441 6.1419 -3.8468
H -2.8120 5.2788 -2.4589
H -2.3545 4.3728 -3.9685
H 1.6083 4.3249 -1.9893
H 2.2802 2.2480 -0.8938
H 2.7474 -1.6512 -1.7293
H 2.3734 -3.3591 -3.4108
H 0.5121 -5.4777 -5.8030
H 1.7043 -5.2915 -4.4670
H 1.4616 -3.9514 -5.6695
H -1.8957 -2.9297 -2.9500
H -1.5148 -1.2062 -1.2427
H -1.6141 -0.3166 1.1741
H -2.3615 -0.4224 3.4625
H -2.1489 -0.2209 7.1489
H -2.6825 -1.1237 5.6835
H -2.5434 0.6855 5.6467
H 1.7389 -0.3477 4.8216
H 2.5125 -0.2258 2.4122
H 8.4660 1.0539 -1.4746
H 9.4391 0.6042 -3.7039
H 8.3518 -0.9548 -5.2722
H 6.2534 -2.0729 -4.6395
H 5.2204 -1.6483 -2.4507
H 6.3321 1.1139 2.5788
H 6.9190 3.3648 3.3360
H 7.2463 5.1900 1.6975
H 6.9836 4.7407 -0.7254
H 6.3698 2.4917 -1.5184
H 6.0504 -1.0644 2.1303
H 4.9881 -2.9187 0.7971
H 6.3669 -3.4226 1.8260
H 6.5244 -3.0241 -1.1904
H 6.5219 -4.5729 -0.3466
H 8.8388 -3.8298 -1.0014
H 8.6723 -4.0199 0.7851
H 8.5795 -1.4808 -0.8212
H 9.8834 -1.9036 0.2333
H 8.3876 -0.2588 1.4223
H 8.3563 -1.8660 2.2134
