70
 
P 0.9446 -0.0183 0.0812
C 0.1584 -1.6152 -0.0789
C -1.2382 -1.7530 -0.0503
C -2.1650 -0.5716 -0.0402
C -1.8027 -3.0293 -0.0810
C -1.0059 -4.1745 -0.1773
C -1.6538 -5.5307 -0.2194
C 0.3888 -4.0441 -0.2677
C 1.0000 -2.7706 -0.2319
C 2.5316 -2.6811 -0.4236
C 0.4233 0.6062 1.8518
C 0.8680 -0.1373 3.0326
C 1.7455 -1.3624 3.0811
C 0.4952 0.2444 4.3399
C -0.3009 1.3373 4.5809
C -0.7181 1.7556 5.9607
C -0.7424 2.0792 3.5255
C -0.4365 1.7850 2.1787
C -1.1575 2.8236 1.2929
C 0.5880 0.8928 -1.5646
C -0.0618 0.3984 -2.7753
C -0.3527 -1.0362 -3.1257
C -0.4532 1.3031 -3.8031
C -0.1890 2.6684 -3.7094
C -0.6427 3.6659 -4.7482
C 0.5412 3.1246 -2.6262
C 0.9443 2.2613 -1.5908
C 1.7659 2.8239 -0.4862
Au 3.4046 -0.0183 0.0812
N 5.5046 -0.0183 0.0812
C 6.3339 1.0015 0.3512
O 7.5902 0.6280 0.2276
C 7.5922 -0.6405 -0.1286
C 6.2850 -1.0638 -0.2189
H -1.6505 0.3871 -0.2086
H -2.7198 -0.5170 0.9138
H -2.8633 -0.6744 -0.8960
H -2.8796 -3.1253 -0.0469
H -2.7625 -5.4498 -0.1825
H -1.3250 -6.1386 0.6492
H -1.3810 -6.0538 -1.1595
H 0.9895 -4.9423 -0.3820
H 2.9636 -3.7067 -0.5294
H 3.0922 -2.1931 0.3803
H 2.7839 -2.1348 -1.3506
H 2.1014 -1.7215 2.1240
H 1.1931 -2.1919 3.5811
H 2.6362 -1.1430 3.7169
H 0.8313 -0.3271 5.2009
H -0.3007 1.0965 6.7469
H -1.8291 1.7358 6.0228
H -0.3754 2.7982 6.1390
H -1.3697 2.9201 3.8052
H -1.6800 3.6140 1.8905
H -1.9822 2.3734 0.7226
H -0.5442 3.5106 0.6974
H 0.1319 -1.7605 -2.4751
H 0.0990 -1.2528 -4.1236
H -1.4445 -1.2170 -3.2040
H -0.9726 0.9415 -4.6903
H -1.2070 3.1969 -5.5818
H 0.2350 4.2038 -5.1655
H -1.3078 4.4189 -4.2662
H 0.7825 4.1800 -2.5869
H 1.9084 3.9181 -0.6030
H 2.7286 2.2506 -0.3696
H 1.2366 2.6506 0.4292
H 6.0111 1.9936 0.6358
H 8.4766 -1.2329 -0.3222
H 5.9260 -2.0454 -0.4995
