41
 
P 0.9348 0.0724 -0.0225
C 0.0513 1.6297 -0.3294
C 0.4562 -0.6949 -1.5960
C 0.4078 -0.5031 1.5880
C -0.9602 -0.7404 1.8003
C -1.4166 -1.1878 3.0408
C -0.5077 -1.4025 4.0781
C 0.8632 -1.1930 3.8645
C 1.3289 -0.7496 2.6127
Au 3.3948 0.0724 -0.0225
P 5.8548 0.0724 -0.0225
N 6.7194 1.4521 0.6899
C 6.3514 1.6938 2.1034
C 8.1534 1.4394 0.4760
O 6.3872 -1.0243 1.1708
C 6.1119 -2.3300 0.7127
O 6.1963 0.5188 -1.6335
C 5.8225 -0.5463 -2.4785
H -1.0466 1.5490 -0.3199
H 0.4294 2.0805 -1.2737
H 0.3786 2.3236 0.4820
H -0.6579 -0.7410 -1.6239
H 0.8031 -1.7516 -1.5617
H 0.8485 -0.1857 -2.4908
H -1.6751 -0.5868 1.0009
H -2.4748 -1.3655 3.1959
H -0.8695 -1.7377 5.0430
H 1.5571 -1.3759 4.6738
H 2.3938 -0.5923 2.4299
H 5.2501 1.6284 2.2632
H 6.6448 2.7258 2.4001
H 6.8589 0.9863 2.7944
H 8.3522 1.4285 -0.6132
H 8.6100 0.5629 0.9740
H 8.5849 2.3818 0.8805
H 6.7801 -3.0455 1.2382
H 6.3203 -2.4948 -0.3715
H 5.0640 -2.5953 0.9588
H 5.6721 -0.1408 -3.5005
H 4.8491 -1.0101 -2.1967
H 6.6276 -1.3116 -2.5464
