32
 
P 0.9083 -0.0369 0.0150
C -0.0092 1.4876 0.3795
C 0.4487 -0.0720 -1.7406
C 0.4323 -1.2867 1.1965
C -0.9221 -1.6379 1.2921
C -1.3351 -2.6178 2.1944
C -0.3953 -3.2494 3.0112
C 0.9641 -2.9136 2.9083
C 1.3873 -1.9341 1.9894
Au 3.3683 -0.0369 0.0150
N 5.4683 -0.0369 0.0150
C 6.1062 -1.0475 0.6638
C 7.4992 -1.0516 0.7618
F 8.1384 -2.0628 1.4002
C 8.2234 0.0073 0.2114
C 7.5499 1.0374 -0.4511
C 6.1549 0.9893 -0.5549
H -1.1050 1.3901 0.3405
H 0.3630 2.3011 -0.2823
H 0.2998 1.7808 1.4117
H -0.6643 -0.1158 -1.7981
H 0.8143 -1.0368 -2.1565
H 0.8359 0.7764 -2.3278
H -1.6579 -1.1595 0.6573
H -2.3835 -2.8853 2.2574
H -0.7251 -4.0035 3.7162
H 1.6807 -3.4199 3.5412
H 2.4445 -1.6696 1.8805
H 5.5259 -1.8475 1.1048
H 9.3018 0.0324 0.3034
H 8.1031 1.8698 -0.8661
H 5.6172 1.7908 -1.0433
