55
 
P 1.0793 0.0429 -0.0431
C 0.2674 -1.5666 0.0174
C -1.1137 -1.7293 0.1215
C -1.6558 -3.0118 0.2694
C -0.8239 -4.1384 0.3030
Cl -1.5097 -5.7319 0.5677
C 0.5555 -3.9891 0.1470
C 1.1001 -2.7092 0.0022
C 0.5304 0.4533 1.6328
C 0.9240 -0.2245 2.7960
C 0.3547 0.1287 4.0340
C -0.6044 1.1490 4.1124
Cl -1.3651 1.5480 5.6440
C -0.9710 1.8450 2.9619
C -0.4016 1.5049 1.7355
C 0.6983 0.9393 -1.5466
C -0.6348 1.2346 -1.9075
C -0.9107 1.9660 -3.0662
C 0.1406 2.4185 -3.8656
Cl -0.2231 3.3057 -5.3414
C 1.4737 2.1600 -3.4877
C 1.7645 1.4151 -2.3186
Au 3.5393 0.0429 -0.0431
P 5.9993 0.0429 -0.0431
N 6.9093 1.5097 -0.4480
C 6.5781 2.6416 0.4428
C 8.3225 1.3627 -0.7231
O 6.6057 -0.3986 1.4846
C 6.1151 -1.6909 1.7609
O 6.1840 -0.5215 -1.6421
C 5.9127 -1.9095 -1.6383
H -1.7619 -0.8693 0.1217
H -2.7233 -3.1268 0.3811
H 1.2042 -4.8602 0.1605
H 2.1778 -2.6159 -0.0981
H 1.6484 -1.0248 2.7468
H 0.6411 -0.3996 4.9332
H -1.7099 2.6379 3.0109
H -0.7198 2.0510 0.8563
H -1.4687 0.9141 -1.2979
H -1.9407 2.1812 -3.3426
H 2.2706 2.5406 -4.1110
H 2.8041 1.1863 -1.9695
H 5.4841 2.6918 0.6580
H 6.8259 3.6047 -0.0587
H 7.1326 2.5913 1.4027
H 8.4526 0.6395 -1.5511
H 8.8601 1.0454 0.1880
H 8.7118 2.3413 -1.0866
H 6.5036 -2.0174 2.7469
H 6.4955 -2.4400 1.0340
H 5.0002 -1.7087 1.8207
H 5.7409 -2.2400 -2.6821
H 4.9777 -2.1636 -1.0864
H 6.7740 -2.5058 -1.2567
