56
 
P 1.0858 -0.0482 0.0178
C 0.2735 0.3008 -1.6208
C -1.2511 0.2052 -1.5992
C 0.6906 1.7319 -2.0522
C 0.8275 -0.6705 -2.6819
C 0.6002 -1.7752 0.2356
C 1.3597 -2.8555 -0.2202
C 0.9440 -4.1672 0.0664
C -0.2150 -4.4005 0.8198
C -0.9611 -3.3267 1.2960
C -0.5522 -2.0267 1.0120
C 0.5906 1.2589 1.1723
C -0.7743 1.4840 1.4580
C -1.1760 2.4807 2.3392
C -0.2192 3.2512 2.9886
C 1.1450 3.0084 2.7621
C 1.5576 2.0132 1.8486
Au 3.5458 -0.0482 0.0178
N 5.6458 -0.0482 0.0178
C 6.2846 0.9467 0.6699
C 7.6673 1.0730 0.5723
C 8.4247 0.1558 -0.2053
N 9.8555 0.3245 -0.4130
C 10.6186 1.4437 0.1339
C 10.6488 -0.5597 -1.2624
C 7.7000 -0.9084 -0.8093
C 6.3145 -0.9818 -0.6915
H -1.6926 1.0091 -0.9963
H -1.5704 -0.7929 -1.2410
H -1.6606 0.3707 -2.6156
H 0.3275 2.4997 -1.3355
H 0.2826 1.9857 -3.0546
H 1.7993 1.8303 -2.1094
H 0.5782 -1.7197 -2.4432
H 1.9338 -0.5750 -2.7684
H 0.3873 -0.4506 -3.6781
H 2.2679 -2.6787 -0.7804
H 1.5242 -5.0076 -0.2838
H -0.5325 -5.4100 1.0482
H -1.8511 -3.4962 1.8938
H -1.1466 -1.2231 1.4156
H -1.5591 0.8954 1.0273
H -2.2341 2.6433 2.5197
H -0.5456 4.0226 3.6764
H 1.8724 3.5983 3.3010
H 2.6186 1.8052 1.6645
H 5.7062 1.6735 1.2266
H 8.0798 1.9177 1.0902
H 10.0550 2.1499 0.7553
H 11.0451 2.0409 -0.7009
H 11.4498 1.0607 0.7612
H 10.1095 -1.3995 -1.7154
H 11.4817 -0.9971 -0.6747
H 11.0706 0.0250 -2.1080
H 8.1404 -1.6813 -1.4085
H 5.7627 -1.7653 -1.1948
