52
 
P 0.9870 0.0012 0.0991
C 0.2370 -0.4895 1.7124
C -1.1316 -0.4361 2.0367
C -1.5731 -0.7957 3.3291
C -0.6687 -1.2333 4.3019
C 0.6832 -1.3302 3.9882
C 1.1327 -0.9578 2.7110
C 0.3975 1.7060 0.0814
C 0.7882 2.6717 1.0047
C 0.2235 3.9562 0.9482
C -0.7261 4.2798 -0.0307
C -1.0918 3.3319 -0.9833
C -0.5281 2.0549 -0.9340
C 0.5157 -1.2235 -1.1862
C 1.4801 -1.8868 -1.9852
C 2.9482 -1.6128 -1.8265
C 1.0604 -2.7522 -3.0242
C -0.2945 -2.9354 -3.3006
C -1.2484 -2.2577 -2.5470
C -0.8510 -1.4175 -1.4952
Au 3.4470 0.0012 0.0991
N 5.5470 0.0012 0.0991
C 6.2032 1.0139 0.6992
C 5.3735 2.0700 1.3395
C 7.6081 1.0707 0.6278
C 8.2970 0.0697 -0.0720
C 7.5866 -0.9613 -0.6866
C 6.1977 -0.9742 -0.5904
H -1.8575 -0.1031 1.3149
H -2.6211 -0.7330 3.5900
H -1.0140 -1.5007 5.2979
H 1.3797 -1.6881 4.7428
H 2.1941 -1.0434 2.5096
H 1.5173 2.4271 1.7608
H 0.5135 4.7021 1.6716
H -1.1765 5.2649 -0.0553
H -1.8187 3.5839 -1.7511
H -0.8399 1.3399 -1.6872
H 3.1173 -0.5646 -1.6934
H 3.4206 -1.7200 -2.8253
H 3.4331 -2.2332 -1.0753
H 1.7826 -3.2702 -3.6465
H -0.6039 -3.5827 -4.1172
H -2.2983 -2.3750 -2.7939
H -1.6211 -0.8875 -0.9539
H 4.2738 1.7763 1.2348
H 5.5822 3.0302 0.8142
H 5.6663 2.1845 2.4036
H 8.1625 1.8823 1.0801
H 9.3763 0.0965 -0.1561
H 8.0999 -1.7350 -1.2450
H 5.6376 -1.7557 -1.0789
