49
 
P 0.9451 -0.0261 -0.0794
C 0.1303 -0.1722 -1.6825
C -1.2529 -0.2257 -1.8811
C -1.7704 -0.3859 -3.1701
C -0.9151 -0.4747 -4.2722
C 0.4641 -0.3787 -4.0916
C 0.9844 -0.2258 -2.8042
C 0.4819 -1.7392 0.4981
C 1.4750 -2.6819 0.8207
C 1.1386 -3.9428 1.3595
C -0.1935 -4.2900 1.5924
C -1.1993 -3.3799 1.2885
C -0.8733 -2.1187 0.7530
C 0.4955 1.5943 0.6862
C 1.4730 2.4825 1.1950
C 2.9094 2.1108 1.2288
C 1.0993 3.7186 1.7654
C -0.2395 4.0693 1.8834
C -1.2195 3.1817 1.4497
C -0.8595 1.9602 0.8543
Au 3.4051 -0.0261 -0.0794
N 5.5051 -0.0261 -0.0794
C 6.1884 1.0326 0.4570
F 5.5510 2.0829 1.0017
C 7.5776 1.0568 0.4700
C 8.2814 -0.0109 -0.0702
F 9.6366 0.0056 -0.0608
C 7.5839 -1.0916 -0.6157
C 6.1803 -1.0823 -0.6104
F 5.4918 -2.1223 -1.1389
H -1.9388 -0.1537 -1.0624
H -2.8394 -0.4472 -3.3119
H -1.3208 -0.6123 -5.2658
H 1.1288 -0.4315 -4.9468
H 2.0617 -0.1559 -2.6864
H 2.5152 -2.4341 0.6781
H 1.9108 -4.6562 1.6162
H -0.4480 -5.2578 2.0206
H -2.2324 -3.6552 1.4907
H -1.7051 -1.4574 0.5853
H 3.0307 1.0731 1.5254
H 3.3849 2.6340 2.0863
H 3.3968 2.3008 0.2737
H 1.8480 4.4119 2.1363
H -0.5123 5.0180 2.3360
H -2.2618 3.4462 1.5811
H -1.6536 1.3045 0.5463
H 8.0960 1.9050 0.9017
H 8.1288 -1.9249 -1.0368
