37
 
P 1.2750 0.0000 0.0000
N 0.3881 1.4969 -0.3183
C -1.0501 1.3867 -0.3185
C -1.4542 -0.0409 0.0013
C -2.9807 -0.0996 0.0154
C -0.8627 -0.9711 -1.1424
N 0.6108 -0.8870 -1.3433
N 0.6067 -0.2527 1.5858
C -0.8665 -0.4077 1.4321
Au 3.7350 0.0003 -0.0005
N 5.8350 0.0006 -0.0009
C 6.4593 -1.0753 -0.5401
C 7.8583 -1.1971 -0.4708
O 8.5190 -2.2782 -0.9592
C 7.9198 -3.3580 -1.5767
C 8.5849 -0.1773 0.1545
C 7.9203 0.9250 0.6992
C 6.5272 0.9926 0.6185
H 0.7351 1.8924 -1.2240
H -1.4432 1.7078 -1.3108
H -1.4384 2.1005 0.4403
H -3.3782 0.2190 -0.9740
H -3.3743 0.6034 0.7834
H -3.3282 -1.1246 0.2411
H -1.3499 -0.7176 -2.1112
H -1.1277 -2.0239 -0.9148
H 0.8689 -0.4094 -2.2366
H 0.8668 0.5485 2.2042
H -1.3539 0.2283 2.2050
H -1.1352 -1.4589 1.6641
H 5.8502 -1.8412 -0.9986
H 8.6874 -4.1229 -1.8088
H 7.4328 -3.0344 -2.5213
H 7.1651 -3.8169 -0.9009
H 9.6628 -0.2462 0.2326
H 8.4779 1.7082 1.1966
H 5.9961 1.8238 1.0627
