55
 
P 1.0709 -0.0650 -0.0273
C 0.6580 1.5530 0.7025
C -0.6831 2.0356 0.7682
C -0.9531 3.3520 1.1770
C 0.0963 4.1889 1.5491
C 1.4166 3.7058 1.5307
C 1.7072 2.3882 1.0977
C 0.5957 -0.3432 -1.8505
C 1.3628 -1.0556 -2.8303
C 0.9227 -1.1654 -4.1800
C -0.2637 -0.5662 -4.5976
C -1.0169 0.1513 -3.6772
C -0.5960 0.2608 -2.3347
C 0.1769 -1.3300 1.0414
C 0.5190 -2.7578 0.5325
C 2.0533 -2.9717 0.4723
C 2.6441 -2.8458 1.8833
C 2.2094 -1.5476 2.6116
C 0.6820 -1.3121 2.5297
Au 3.5309 -0.0650 -0.0273
N 5.6309 -0.0650 -0.0273
C 6.2955 0.8115 0.7667
N 7.6476 0.9024 0.6941
C 8.3624 0.1188 -0.1610
O 9.7067 0.2522 -0.2615
C 10.4239 1.2272 0.4028
C 7.6930 -0.8142 -0.9598
C 6.3011 -0.8841 -0.8774
H -1.5340 1.4340 0.4711
H -1.9722 3.7387 1.1870
H -0.1197 5.2153 1.8416
H 2.2097 4.3764 1.8272
H 2.7434 1.9882 1.0159
H 2.2990 -1.5377 -2.5970
H 1.4940 -1.7113 -4.9272
H -0.5963 -0.6507 -5.6346
H -1.9330 0.6274 -4.0155
H -1.2173 0.8415 -1.6800
H -0.9216 -1.1779 1.0327
H 0.0753 -2.9373 -0.4638
H 0.0770 -3.5216 1.2243
H 2.5648 -2.2414 -0.2228
H 2.2629 -3.9928 0.0803
H 3.7538 -2.9072 1.8164
H 2.2911 -3.7189 2.4712
H 2.6942 -0.6574 2.1706
H 2.5467 -1.6054 3.6731
H 0.4277 -0.3607 3.0435
H 0.1752 -2.1209 3.1140
H 5.7457 1.4591 1.4351
H 11.5011 1.1293 0.1572
H 10.2929 1.1170 1.4997
H 10.0815 2.2381 0.0881
H 8.2323 -1.4516 -1.6498
H 5.7489 -1.5707 -1.5058
