51
 
P 1.0278 0.0561 0.0779
C 0.1340 1.5251 0.6556
C 0.5259 -0.0506 -1.6611
C 0.5275 -1.2081 1.2772
Au 3.4878 0.0561 0.0779
P 5.9478 0.0561 0.0779
C 6.6198 -1.3464 1.0182
C 5.6974 -2.2065 1.6823
C 6.1598 -3.2520 2.5033
C 7.5317 -3.4598 2.6496
C 8.4353 -2.6447 1.9603
C 7.9819 -1.5933 1.1529
C 6.3994 -0.0565 -1.6600
C 5.4091 -0.0968 -2.6463
C 5.7676 -0.1199 -4.0004
C 7.1152 -0.0904 -4.3751
C 8.1083 -0.0198 -3.3968
C 7.7537 0.0018 -2.0439
C 6.5176 1.5395 1.0029
C 6.1095 2.7815 0.2274
C 4.7474 3.0662 0.0327
C 4.3524 4.1454 -0.7641
C 5.3083 4.9665 -1.3655
C 6.6670 4.7284 -1.1466
C 7.0716 3.6422 -0.3543
H -0.9628 1.4421 0.6228
H 0.4860 2.3856 0.0403
H 0.4852 1.7356 1.6925
H -0.5860 -0.0819 -1.6975
H 0.9007 -1.0104 -2.0757
H 0.9010 0.8014 -2.2564
H -0.5844 -1.2565 1.2829
H 0.9025 -0.9906 2.2936
H 0.9034 -2.1924 0.9259
H 4.6180 -2.0607 1.5908
H 5.4671 -3.8971 3.0402
H 7.8977 -4.2506 3.2968
H 9.4956 -2.8158 2.0644
H 8.6907 -0.9655 0.6494
H 4.3639 -0.0921 -2.3669
H 5.0006 -0.1514 -4.7616
H 7.3896 -0.1081 -5.4227
H 9.1516 0.0280 -3.6883
H 8.5412 0.0874 -1.3090
H 7.6304 1.4867 1.0317
H 6.1422 1.5484 2.0448
H 3.9897 2.4369 0.4786
H 3.3006 4.3357 -0.9278
H 4.9933 5.7863 -2.0012
H 7.4026 5.3788 -1.6079
H 8.1331 3.4688 -0.2217
