50
 
P 0.9299 -0.0042 0.0712
C 0.4677 -1.3658 1.2196
C -0.3559 -2.4512 0.8437
C -0.7392 -3.4273 1.7693
C -0.3425 -3.3279 3.0994
C 0.4541 -2.2560 3.5037
C 0.8645 -1.2856 2.5721
C 0.3753 1.6882 0.4077
C 1.1248 2.8210 0.0539
C 0.6311 4.1045 0.3198
C -0.6009 4.2688 0.9585
C -1.3440 3.1488 1.3343
C -0.8610 1.8648 1.0575
C 0.2292 -0.3603 -1.5913
C 0.6292 0.7841 -2.5634
C 2.1750 0.9073 -2.7191
C 2.7599 -0.3939 -3.2644
C 2.3944 -1.5629 -2.3526
C 0.8658 -1.6660 -2.1822
Au 3.3899 -0.0042 0.0712
C 5.5399 -0.0042 0.0712
N 6.3071 0.6414 -0.8267
H 5.9833 1.2187 -1.6336
C 7.5762 0.3840 -0.4585
Cl 8.9981 0.9872 -1.2879
C 7.5546 -0.4184 0.6629
Cl 8.9373 -1.0398 1.5444
N 6.2735 -0.6585 0.9899
H -0.7508 -2.5627 -0.1453
H -1.3669 -4.2529 1.4560
H -0.6680 -4.0745 3.8158
H 0.7402 -2.1766 4.5458
H 1.4676 -0.4583 2.9219
H 2.0800 2.7274 -0.4332
H 1.2045 4.9749 0.0301
H -0.9778 5.2633 1.1643
H -2.2956 3.2774 1.8366
H -1.4550 1.0083 1.3538
H -0.8767 -0.4410 -1.5231
H 0.2017 1.7500 -2.2288
H 0.1831 0.5807 -3.5620
H 2.6965 1.1237 -1.7534
H 2.4068 1.7326 -3.4260
H 3.8660 -0.3035 -3.3365
H 2.3544 -0.5898 -4.2797
H 2.8741 -1.4405 -1.3685
H 2.8000 -2.5053 -2.7737
H 0.7003 -2.5615 -1.5714
H 0.4100 -1.8722 -3.1741
H 5.9164 -1.2294 1.7875
