69
 
P 1.2750 0.0000 -0.0000
N 0.3932 -1.4252 0.5592
C -1.0436 -1.3207 0.5365
C -1.4504 0.0374 -0.0072
C -2.9753 0.0881 -0.0289
C -0.8617 1.1405 0.9727
N 0.6120 1.0985 1.1765
N 0.6105 0.0011 -1.6059
C -0.8629 0.1729 -1.4790
Au 3.7350 0.0003 -0.0005
C 5.8850 0.0006 -0.0009
N 6.6411 1.1841 -0.0271
C 6.2686 2.6524 -0.0624
C 4.9042 3.0679 -0.0229
C 3.8911 2.1480 0.1815
C 4.4457 4.3552 -0.0353
C 5.3367 5.3806 -0.0263
C 4.7910 6.7630 0.0263
C 6.7057 5.0949 -0.0145
C 7.1911 3.7587 -0.0372
C 8.6764 3.6123 0.0302
C 7.8969 0.7179 -0.0082
C 7.9130 -0.6249 0.0326
N 6.6669 -1.1498 0.0186
C 6.3003 -2.6199 0.0289
C 7.2359 -3.7310 0.0907
C 8.7386 -3.7251 0.1063
C 6.7596 -5.0704 0.1039
C 5.4090 -5.3794 0.0534
C 4.8664 -6.7607 0.0398
C 4.5120 -4.3778 -0.0323
C 4.9368 -3.0714 -0.0698
C 3.8627 -2.2098 -0.2959
H 0.7409 -1.6625 1.5183
H -1.4378 -1.4830 1.5662
H -1.4257 -2.1470 -0.1014
H -3.3692 -0.0703 0.9998
H -3.3653 -0.7299 -0.6749
H -3.3246 1.0635 -0.4141
H -1.3427 1.0406 1.9721
H -1.1327 2.1426 0.5825
H 0.8799 0.7835 2.1366
H 0.8797 -0.8805 -2.0976
H -1.3460 -0.5803 -2.1407
H -1.1347 1.1730 -1.8754
H 4.4994 1.7145 1.0337
H 3.5059 1.8196 -0.8202
H 3.0892 2.1067 0.9086
H 3.3723 4.5491 -0.0020
H 3.6745 6.7599 0.0170
H 5.1422 7.3149 -0.8625
H 5.1170 7.2362 0.9725
H 7.3949 5.9240 0.0341
H 9.2086 4.5795 0.0856
H 9.0335 3.1095 -0.8916
H 8.9340 3.0736 0.9700
H 8.8251 1.2290 -0.0180
H 8.8675 -1.0373 0.0634
H 9.3249 -2.8468 0.0305
H 9.0819 -4.2882 -0.7846
H 9.0851 -4.2022 1.0423
H 7.4564 -5.8948 0.1389
H 5.6817 -7.5018 0.0681
H 4.2692 -6.8895 -0.8919
H 4.1920 -6.8863 0.9152
H 3.4505 -4.6247 -0.0995
H 2.8299 -2.5780 -0.4253
H 4.1993 -1.8594 -1.3215
H 3.8583 -1.7423 0.7083
