30
 
P 1.2750 0.0000 0.0000
O 0.4368 1.4732 -0.3301
C -0.9580 1.3729 -0.2983
C -1.4006 -0.0446 0.0091
C -2.9306 -0.1036 0.0221
C -0.7804 -0.9581 -1.1172
O 0.6276 -0.8046 -1.3425
O 0.6251 -0.1599 1.5559
C -0.7801 -0.4091 1.4123
Au 3.7350 0.0003 -0.0005
N 5.8350 0.0006 -0.0009
C 6.4785 -0.0632 1.1957
C 7.8710 0.0349 1.2513
F 8.5144 -0.0129 2.4439
C 8.5905 0.2019 0.0665
C 7.9121 0.2629 -1.1534
C 6.5166 0.1641 -1.1665
H -1.3422 1.7010 -1.2888
H -1.3372 2.0810 0.4716
H -3.3286 0.2194 -0.9659
H -3.3285 0.5973 0.7898
H -3.2835 -1.1284 0.2426
H -1.2801 -0.6969 -2.0763
H -1.0054 -2.0219 -0.8980
H -1.2838 0.2200 2.1785
H -1.0008 -1.4707 1.6507
H 5.9032 -0.1725 2.1057
H 9.6690 0.2926 0.0942
H 8.4613 0.4002 -2.0757
H 5.9751 0.2334 -2.1003
