30
 
P 1.2750 0.0000 0.0000
N 0.3892 1.5001 -0.3032
C -1.0486 1.3876 -0.3145
C -1.4533 -0.0409 0.0011
C -2.9796 -0.0982 0.0149
C -0.8621 -0.9680 -1.1450
N 0.6106 -0.8782 -1.3488
N 0.6084 -0.2704 1.5835
C -0.8661 -0.4127 1.4311
Au 3.7350 0.0003 -0.0005
N 5.8350 0.0006 -0.0009
C 6.6667 -0.5376 0.9047
O 7.9225 -0.3450 0.5594
C 7.9224 0.3176 -0.5793
C 6.6142 0.5393 -0.9472
H 0.7371 1.8953 -1.2092
H -1.4370 1.7094 -1.3088
H -1.4409 2.1008 0.4424
H -3.3763 0.2216 -0.9743
H -3.3724 0.6045 0.7836
H -3.3274 -1.1231 0.2399
H -1.3510 -0.7150 -2.1127
H -1.1242 -2.0217 -0.9173
H 0.8697 -0.4018 -2.2420
H 0.8704 0.5290 2.2043
H -1.3489 0.2265 2.2046
H -1.1409 -1.4619 1.6632
H 6.3463 -1.0576 1.7970
H 8.8057 0.6264 -1.1224
H 6.2543 1.0518 -1.8295
