49
 
P 0.9864 -0.0913 -0.0384
O 0.5064 0.2815 1.5654
C 0.9312 -0.6222 2.5366
C 0.4237 -0.0906 3.8757
O 0.5941 0.7882 -1.4462
C -0.7989 1.0290 -1.4098
C -1.1985 1.9765 -2.5326
C 0.2206 -1.7222 -0.2018
C -1.0052 -2.0587 0.3646
C -1.4471 -3.3860 0.3297
C -0.6781 -4.3801 -0.2882
C 0.5353 -4.0488 -0.8903
C 0.9882 -2.7260 -0.8437
Au 3.4464 -0.0913 -0.0384
N 5.5464 -0.0913 -0.0384
C 5.8238 -0.9165 -1.2286
C 6.0898 -0.8462 1.1031
C 6.1391 1.2011 -0.4414
C 7.4557 1.6002 -0.0556
C 7.9760 2.8686 -0.3915
C 7.2240 3.7680 -1.1407
C 5.9683 3.3848 -1.6063
C 5.4259 2.1198 -1.2704
H 2.0369 -0.6945 2.5501
H 0.4523 -1.6087 2.4031
H 0.8514 0.9137 4.0883
H 0.7028 -0.7889 4.6881
H -0.6872 0.0077 3.8579
H -1.1251 1.5013 -0.4506
H -1.3467 0.0771 -1.5751
H -0.7079 2.9644 -2.4045
H -2.3011 2.1247 -2.5230
H -0.9083 1.5439 -3.5122
H -1.5857 -1.3035 0.8689
H -2.3787 -3.6467 0.8055
H -1.0187 -5.4079 -0.2916
H 1.1316 -4.8217 -1.3684
H 1.9527 -2.4994 -1.2923
H 5.3685 -1.9303 -1.1147
H 6.9215 -1.0790 -1.3744
H 5.4001 -0.4953 -2.1632
H 5.2435 -1.3018 1.6589
H 6.7185 -0.2383 1.7765
H 6.7255 -1.7266 0.8148
H 8.0989 0.9500 0.5160
H 8.9665 3.1714 -0.0650
H 7.6186 4.7584 -1.3708
H 5.4187 4.0916 -2.2206
H 4.4430 1.8711 -1.6588
