67
 
P 1.0552 0.0793 0.0259
C 0.2598 1.1723 -1.2820
C -1.2712 1.2447 -1.3768
C -1.8734 2.0709 -0.2384
C -1.2896 3.4963 -0.2066
C 0.2452 3.5044 -0.1752
C 0.8198 2.6280 -1.2970
C 0.4505 -1.6904 -0.4947
C 0.6142 -2.3908 -1.8866
C 1.8809 -3.2566 -2.0521
C 1.9986 -4.2937 -0.9240
C 2.0019 -3.5733 0.4235
C 0.7014 -2.7796 0.6019
C 0.6334 0.7839 1.8191
C -0.5456 0.3703 2.5707
C -1.4852 -0.7270 2.2255
C -0.9331 0.9601 3.7920
C -0.1899 1.9286 4.4177
C -0.7083 2.5320 5.7200
C 1.0288 2.2719 3.8322
C 1.4573 1.7161 2.5771
C 2.8182 2.1503 2.1368
Au 3.5152 0.0793 0.0259
O 5.5652 0.0793 0.0259
C 5.9273 1.3607 -0.3197
C 7.4575 1.4205 -0.3512
C 5.2772 1.6583 -1.6600
H 0.6201 0.7168 -2.2300
H -1.7153 0.2342 -1.4362
H -1.5253 1.7639 -2.3313
H -1.6863 1.5607 0.7087
H -2.9733 2.1335 -0.3734
H -1.6829 4.0431 0.6792
H -1.6187 4.0311 -1.1207
H 0.6001 3.1532 0.7918
H 0.6119 4.5506 -0.2779
H 1.9318 2.6360 -1.2704
H 0.5200 3.1095 -2.2563
H -0.6339 -1.4989 -0.5208
H 0.4594 -1.6993 -2.7362
H -0.2189 -3.1395 -1.9554
H 2.7771 -2.6106 -2.0597
H 1.8295 -3.8161 -3.0159
H 2.9333 -4.8872 -1.0398
H 1.1500 -5.0201 -0.9611
H 2.8760 -2.8960 0.4886
H 2.0758 -4.3379 1.2302
H 0.6873 -2.3545 1.6232
H -0.1277 -3.5261 0.5427
H -1.1953 -1.2715 1.3692
H -2.5154 -0.3530 2.0815
H -1.4671 -1.4542 3.0732
H -1.8505 0.6409 4.2826
H -1.6848 2.0845 6.0274
H -0.8953 3.6231 5.6153
H -0.0057 2.3637 6.5612
H 1.6453 2.9913 4.3650
H 2.9949 3.2177 2.3965
H 2.9397 2.0576 1.0612
H 3.5595 1.5551 2.7190
H 5.5500 2.0637 0.4537
H 7.8623 0.6936 -1.0892
H 7.8567 1.1398 0.6502
H 7.8204 2.4381 -0.5990
H 5.6815 0.9763 -2.4379
H 5.5059 2.7052 -1.9575
H 4.1709 1.4610 -1.5675
