79
 
P 1.0882 -0.0131 0.0452
C 0.4459 1.3249 1.4113
C 0.9194 2.7977 1.2605
C 0.2256 3.5049 0.0714
C -1.3382 3.3485 0.0623
C -1.8150 1.9609 0.4791
C -1.0676 1.5980 1.7453
C 0.7754 0.2342 -1.9131
C 1.3519 -0.8288 -2.9116
C 0.6378 -2.1708 -2.7050
C -0.8673 -2.1353 -2.8987
C -1.4863 -0.9663 -2.1290
C -0.7123 0.3359 -2.4219
C 0.6015 -1.7463 0.7381
C -0.6781 -1.9737 1.3899
C -1.7074 -0.9948 1.6114
C -1.1176 -3.1931 1.8214
C -0.3683 -4.3026 1.6063
C -0.8985 -5.6033 2.0534
C 0.8560 -4.1981 0.9697
C 1.3684 -2.9555 0.5490
C 2.6922 -3.0451 -0.1355
Au 3.5482 -0.0131 0.0452
C 5.6982 -0.0131 0.0452
N 6.3951 0.6067 0.9138
C 5.8424 1.4357 1.9611
C 4.2964 1.4573 1.9423
C 7.8148 0.4112 0.6770
C 7.8563 -0.7249 -0.3532
N 6.5204 -0.7130 -0.8757
C 6.1445 -1.2894 -2.1520
C 5.0559 -2.3004 -1.9811
H 0.9146 0.9630 2.3521
H 2.0149 2.8955 1.2150
H 0.6302 3.3452 2.1969
H 0.7002 3.0877 -0.8330
H 0.4554 4.5950 0.0980
H -1.7828 3.6241 -0.9169
H -1.7734 4.0139 0.8314
H -1.5580 1.2225 -0.2431
H -2.9159 1.8454 0.5663
H -1.4451 2.4489 2.3508
H -1.2377 1.4290 2.8283
H 1.2479 1.2042 -2.1842
H 2.4499 -0.9265 -2.8384
H 1.1669 -0.5268 -3.9810
H 0.7212 -2.3802 -1.6724
H 1.0868 -2.9904 -3.3034
H -1.2918 -3.0946 -2.5157
H -1.0905 -2.0481 -3.9779
H -1.4368 -1.1880 -1.0617
H -2.5597 -0.8959 -2.3978
H -1.2136 1.2577 -2.1244
H -0.7554 0.4947 -3.5231
H -1.3790 -0.3953 0.8543
H -1.7190 -0.6649 2.6760
H -2.7194 -1.1482 1.1926
H -2.0928 -3.2752 2.3012
H -1.8854 -5.4795 2.5544
H -0.1724 -6.0119 2.7778
H -1.0213 -6.2528 1.1661
H 1.4037 -5.1115 0.7892
H 3.0866 -4.0841 -0.1798
H 3.4230 -2.4132 0.3935
H 2.6101 -2.8009 -1.1949
H 6.2334 2.4703 1.8370
H 6.2028 1.0498 2.9397
H 3.9299 1.8587 0.9822
H 3.9548 2.0991 2.7747
H 3.8702 0.4494 2.0713
H 8.3958 0.1268 1.5796
H 8.2186 1.3478 0.2324
H 7.9804 -1.7038 0.1663
H 8.6554 -0.5937 -1.1131
H 7.0248 -1.7593 -2.6445
H 5.7566 -0.4872 -2.8141
H 5.4109 -3.1501 -1.3451
H 4.7748 -2.7358 -2.9704
H 4.2289 -1.6655 -1.5358
