62
 
C 0.9010 -0.6430 -0.0020
N -0.3371 -1.1198 0.0024
C -0.3004 -2.5717 -0.2824
C 0.5785 -3.2639 0.7844
C -0.3574 -3.9196 1.8286
C -1.1654 -5.0257 1.1437
C -2.1543 -4.4178 0.1330
C -1.4449 -3.4847 -0.8606
C -1.1101 -0.0161 0.2242
C -0.2569 1.1156 0.2694
N 1.0061 0.6888 0.0689
C 2.3361 1.3389 -0.0882
C 2.8746 0.9788 -1.5011
C 2.0261 1.6712 -2.5800
C 2.2094 3.1858 -2.4550
C 1.7447 3.6685 -1.0721
C 2.4223 2.8838 0.0683
Au 2.6584 -1.8814 -0.0135
N 4.3750 -3.0911 -0.0247
C 3.9467 -3.7423 -1.2620
C 4.3488 -4.1803 0.9618
C 5.6576 -2.4540 -0.1431
C 5.7289 -1.0606 -0.2735
C 6.9671 -0.4131 -0.3727
C 8.1518 -1.1527 -0.3443
C 8.1016 -2.5406 -0.2206
C 6.8687 -3.1907 -0.1224
H 0.2895 -2.5382 -1.2266
H 1.2905 -2.6111 1.2829
H 1.2918 -3.9098 0.2956
H -1.0646 -3.1836 2.2919
H 0.2540 -4.3545 2.6415
H -1.7368 -5.6194 1.8902
H -0.4421 -5.7112 0.6466
H -2.9499 -3.8676 0.6667
H -2.6378 -5.2570 -0.4320
H -2.1478 -2.9875 -1.5673
H -0.8957 -4.2283 -1.4902
H -2.1863 0.0179 0.3252
H -0.5314 2.1546 0.4115
H 3.0122 0.9020 0.6817
H 2.8506 -0.1207 -1.6597
H 3.9341 1.3014 -1.6182
H 0.9517 1.4017 -2.4656
H 2.3535 1.3418 -3.5878
H 1.6309 3.7099 -3.2465
H 3.2863 3.4235 -2.6082
H 0.6488 3.5498 -1.0022
H 1.9833 4.7521 -0.9715
H 2.0421 3.2128 1.0567
H 3.5066 3.1490 0.0337
H 2.8705 -4.0040 -1.1696
H 4.5134 -4.6575 -1.5401
H 3.9575 -3.0154 -2.1001
H 3.3146 -4.5158 1.1744
H 4.8235 -3.8597 1.9127
H 4.9259 -5.0763 0.6245
H 4.8260 -0.4767 -0.2843
H 7.0104 0.6641 -0.4660
H 9.1095 -0.6524 -0.4164
H 9.0195 -3.1153 -0.1976
H 6.8752 -4.2670 -0.0306
