65
 
C 0.9010 -0.6430 -0.0020
N -0.3245 -0.8941 -0.6045
C -0.9102 -1.9007 -1.5068
C -1.1114 0.1541 -0.3076
C -0.4186 1.0363 0.4544
N 0.8278 0.5647 0.6404
C 1.7969 1.2603 1.4844
Au 2.6584 -1.8814 -0.0135
C 4.4159 -3.1199 -0.0250
N 4.4138 -4.4303 -0.1500
C 3.3108 -5.4223 -0.0782
C 1.9953 -5.2037 -0.5570
C 1.6131 -3.9355 -1.1902
C 0.9953 -6.2319 -0.4934
C 1.2705 -7.4804 0.0814
C 0.2990 -8.6305 0.1631
C 2.5184 -7.6970 0.5967
C 3.5162 -6.7292 0.5141
C 4.7897 -7.1785 1.1004
C 5.7948 -4.8556 -0.1907
C 6.6038 -3.6442 -0.4456
N 5.7584 -2.6022 0.0686
C 6.2020 -1.2463 0.2673
C 5.3697 -0.1467 -0.0613
C 4.1048 -0.2466 -0.8194
C 5.7376 1.1526 0.2717
C 6.9416 1.4170 0.8994
C 7.3004 2.8206 1.2588
C 7.8134 0.3710 1.1792
C 7.4785 -0.9563 0.8710
C 8.5113 -1.9920 1.2516
H -0.2548 -2.6451 -1.9200
H -1.2704 -1.3935 -2.4296
H -1.7841 -2.3886 -1.0236
H -2.1344 0.2733 -0.6482
H -0.8084 1.9674 0.8437
H 1.3150 2.1352 1.9763
H 2.6284 1.6811 0.8958
H 2.1521 0.5783 2.2842
H 2.3993 -3.2433 -1.4221
H 0.9611 -3.4333 -0.4704
H 1.1530 -4.2174 -2.1731
H 0.0052 -6.0767 -0.9112
H -0.6766 -8.3996 -0.3028
H 0.1433 -8.9194 1.2274
H 0.7394 -9.5160 -0.3548
H 2.7233 -8.6584 1.0637
H 4.8538 -8.2318 1.4206
H 4.9820 -6.5203 1.9786
H 5.4792 -7.1889 0.2559
H 6.0163 -5.5853 -0.9999
H 6.1008 -5.1616 0.8280
H 6.7241 -3.4816 -1.5402
H 7.5738 -3.8611 0.0093
H 3.9906 -1.1897 -1.3712
H 4.1075 0.4652 -1.6677
H 3.3045 0.0540 -0.1664
H 5.0721 1.9708 0.0233
H 6.4919 3.5268 0.9711
H 8.2305 3.1104 0.7308
H 7.4478 2.8873 2.3563
H 8.7611 0.5968 1.6531
H 9.3682 -1.5644 1.8105
H 8.9796 -2.4133 0.3363
H 8.0587 -2.7724 1.8998
