63
 
C 0.9010 -0.6430 -0.0020
N -0.3670 -1.1015 0.0288
C -0.8126 -2.5049 0.0565
C -0.9307 -2.9415 1.5201
C -2.1838 -2.6380 -0.6413
C 0.1988 -3.4162 -0.6732
C -1.1503 0.0028 0.0244
C -0.3508 1.1127 -0.0157
N 0.9385 0.7131 -0.0336
C 2.1429 1.5693 -0.0444
C 1.7788 3.0619 -0.0471
C 2.9612 1.2874 1.2157
C 2.9800 1.2528 -1.2900
Au 2.6584 -1.8814 -0.0135
C 4.4159 -3.1199 -0.0250
N 4.9240 -3.6381 1.0305
C 4.4543 -3.3771 2.3830
C 3.2148 -2.4582 2.3749
C 4.1265 -4.6826 3.1090
C 6.1045 -4.4148 0.6949
C 6.0092 -4.5615 -0.8275
N 5.1415 -3.4714 -1.1856
C 4.9645 -2.9772 -2.5409
C 3.5361 -2.5109 -2.8133
C 5.9424 -1.8147 -2.7615
H -1.6207 -2.2615 2.0639
H 0.0600 -2.8882 2.0171
H -1.3109 -3.9814 1.5911
H -2.9608 -2.0513 -0.1086
H -2.5258 -3.6930 -0.6539
H -2.1186 -2.2672 -1.6881
H 1.1775 -3.4100 -0.1631
H 0.3462 -3.0839 -1.7237
H -0.1440 -4.4716 -0.6714
H -2.2299 0.0255 0.0477
H -0.7031 2.1351 -0.0229
H 1.1823 3.3093 0.8580
H 1.1868 3.3084 -0.9529
H 2.6970 3.6867 -0.0401
H 2.3579 1.4500 2.1358
H 3.8929 1.8862 1.2624
H 3.2641 0.2526 1.1736
H 2.4013 1.4558 -2.2164
H 3.2587 0.1908 -1.2718
H 3.9214 1.8401 -1.3072
H 5.2807 -2.8698 2.9355
H 2.3665 -2.9105 1.8485
H 3.4882 -1.5697 1.8540
H 2.9355 -2.1776 3.4088
H 3.3047 -5.2111 2.5838
H 3.8179 -4.4638 4.1529
H 5.0129 -5.3495 3.1584
H 6.1577 -5.4152 1.1716
H 6.9976 -3.8096 0.9702
H 5.4683 -5.5052 -1.0768
H 7.0035 -4.5486 -1.3208
H 5.2159 -3.7873 -3.2619
H 3.3266 -1.6422 -2.2053
H 2.8048 -3.3200 -2.6200
H 3.4436 -2.1692 -3.8658
H 5.7244 -0.9862 -2.0511
H 5.8614 -1.4248 -3.7974
H 6.9890 -2.1486 -2.5938
