66
 
P 1.0145 0.0520 -0.0841
C 0.3107 -0.1419 -1.8227
C -1.1974 -0.2501 -2.1050
C 0.8777 0.9641 -2.7277
C 0.5137 -1.4570 0.8948
C -1.0149 -1.6596 1.0708
C 1.1156 -2.7314 0.3342
C 0.5384 1.7566 0.5520
C -0.9863 1.9449 0.7130
C 1.1305 2.0466 1.9483
Au 3.4745 0.0520 -0.0841
P 5.9345 0.0520 -0.0841
C 6.7951 -1.1251 -1.1778
C 7.5672 -0.7369 -2.2865
C 8.0917 -1.7033 -3.1589
C 7.8484 -3.0622 -2.9415
C 7.0776 -3.4618 -1.8513
C 6.5507 -2.5023 -0.9789
C 6.3328 1.7626 -0.6012
C 5.3164 2.7102 -0.8269
C 5.6380 4.0334 -1.1777
C 6.9722 4.4261 -1.3089
C 7.9908 3.5042 -1.0696
C 7.6766 2.1862 -0.7073
C 6.4644 -0.5244 1.5479
C 5.5372 -0.8534 2.5478
C 5.9873 -1.1684 3.8430
C 7.3558 -1.1583 4.1402
C 8.2818 -0.8638 3.1395
C 7.8403 -0.5521 1.8496
H 0.7567 -1.0897 -2.1933
H -1.7677 0.6533 -1.8668
H -1.6644 -1.1319 -1.6688
H -1.3468 -0.3964 -3.1962
H 0.4210 1.9477 -2.4900
H 0.6537 0.7352 -3.7948
H 1.9825 1.0358 -2.6318
H 0.9132 -1.3011 1.9194
H -1.5295 -1.9507 0.1513
H -1.5307 -0.7918 1.5088
H -1.2164 -2.5068 1.7582
H 0.7447 -2.9150 -0.6942
H 0.8156 -3.5901 0.9757
H 2.2198 -2.6526 0.3416
H 0.9141 2.5169 -0.1586
H -1.4140 1.2985 1.5025
H -1.5357 1.7889 -0.2119
H -1.2212 2.9849 1.0210
H 0.7604 1.3238 2.7120
H 0.8053 3.0584 2.2917
H 2.2363 2.0360 1.9415
H 7.7399 0.3010 -2.5129
H 8.6735 -1.3996 -4.0192
H 8.2442 -3.8053 -3.6247
H 6.8747 -4.5154 -1.6934
H 5.9284 -2.8426 -0.1599
H 4.2758 2.4402 -0.7155
H 4.8545 4.7622 -1.3452
H 7.2179 5.4463 -1.5868
H 9.0253 3.8165 -1.1608
H 8.4914 1.5022 -0.5146
H 4.4739 -0.8318 2.3335
H 5.2793 -1.3993 4.6283
H 7.7018 -1.3720 5.1457
H 9.3415 -0.8568 3.3690
H 8.5771 -0.3066 1.0963
