64
 
P -1.3500 0.0010 0.7980
N -1.1727 -1.1735 -0.5331
C -2.3714 -1.1557 -1.3741
C 0.0317 -1.4067 -1.3350
C 1.2731 -1.2636 -0.5444
N 1.7597 0.1282 -0.2678
C 1.1265 1.4937 -0.3126
C -0.2170 1.6984 -1.0240
N -1.4472 1.4400 -0.2080
C -1.7946 2.5450 0.6888
N 0.0087 -0.6340 1.8960
C -0.4033 -1.5680 2.9531
C 1.4007 -0.0491 2.1431
C 2.4533 0.0154 0.9879
Au -3.3226 0.0026 2.2679
P -5.2952 0.0042 3.7377
N -6.9816 0.2766 3.1526
C -7.1012 1.5645 2.4188
C -7.3101 -0.7470 2.1174
N -5.5177 -1.7082 4.2365
C -4.3723 -2.2077 5.0097
C -6.7337 -1.8941 5.0657
N -5.0824 1.4507 4.7782
C -6.1265 1.5396 5.8189
C -3.7764 1.4272 5.4676
H -3.2898 -1.0994 -0.7495
H -2.4351 -2.0890 -1.9716
H -2.3439 -0.2800 -2.0566
H 0.0841 -0.8687 -2.2946
H -0.0091 -2.4901 -1.6013
H 2.1034 -1.8261 -1.0216
H 1.1188 -1.9044 0.3567
H 1.8889 2.1439 -0.7981
H 1.0305 1.9871 0.6773
H -0.2152 1.1752 -1.9906
H -0.2333 2.7698 -1.3261
H -1.8793 3.4947 0.1183
H -1.0328 2.6768 1.4891
H -2.7856 2.3170 1.1682
H -1.3769 -1.2836 3.3985
H 0.3234 -1.5851 3.8021
H -0.4036 -2.5968 2.5431
H 1.3017 0.9538 2.5851
H 1.9783 -0.6904 2.8482
H 3.1432 -0.8700 0.9411
H 3.1773 0.8522 1.1378
H -6.9548 2.4456 3.0679
H -8.1262 1.6651 1.9814
H -6.3991 1.6268 1.5498
H -7.1570 -1.7903 2.4422
H -6.6988 -0.6315 1.1910
H -8.3846 -0.6747 1.8361
H -3.4284 -2.1115 4.4389
H -4.5176 -3.2925 5.2268
H -4.2888 -1.6943 5.9936
H -7.6690 -1.6390 4.5350
H -6.7034 -1.2884 5.9897
H -6.8519 -2.9635 5.3443
H -7.1446 1.5123 5.3867
H -6.0348 2.5081 6.3604
H -6.0247 0.7392 6.5854
H -2.9375 1.4465 4.7453
H -3.6711 0.5460 6.1406
H -3.6682 2.3303 6.1146
