61
 
C 0.9010 -0.6430 -0.0020
N -0.3877 -1.0258 -0.0124
C -0.7962 -2.4200 0.0405
C -0.2670 -2.8727 1.4071
C -1.4379 -3.4627 2.1616
C -1.8357 -4.7580 1.4657
C -2.2276 -4.5012 -0.0014
C -1.1588 -3.7182 -0.7735
C -1.1079 0.1008 0.1998
C -0.2309 1.1817 0.2459
N 1.0218 0.7072 0.0776
C 2.3300 1.3886 -0.0748
C 2.8176 1.0545 -1.4977
C 1.8978 1.7514 -2.5317
C 2.0966 3.2665 -2.4290
C 1.7042 3.7597 -1.0283
C 2.4016 2.9473 0.0868
Au 2.6584 -1.8814 -0.0135
N 4.3750 -3.0911 -0.0247
C 4.4532 -4.4285 -0.0467
N 5.7447 -4.8358 -0.0738
C 6.2419 -6.1937 -0.0727
C 5.3573 -7.2910 -0.0106
C 5.8478 -8.5991 0.0159
C 7.2226 -8.8340 -0.0212
C 8.1107 -7.7614 -0.0915
C 7.6282 -6.4524 -0.1168
C 6.4814 -3.6982 -0.0918
C 5.6290 -2.6228 -0.0443
H -0.1135 -2.4633 -0.8320
H 0.1004 -2.0265 2.0328
H 0.5965 -3.5617 1.2736
H -2.2814 -2.7288 2.1708
H -1.1397 -3.6597 3.2101
H -2.6868 -5.2166 2.0072
H -0.9643 -5.4475 1.5142
H -3.1562 -3.8980 -0.0259
H -2.4143 -5.4749 -0.5035
H -1.5670 -3.5573 -1.8045
H -0.2561 -4.4078 -0.8614
H -2.1783 0.1411 0.3536
H -0.4963 2.2197 0.3931
H 3.0215 0.9500 0.6773
H 2.8067 -0.0470 -1.6345
H 3.8657 1.3881 -1.6509
H 0.8238 1.5051 -2.3585
H 2.1514 1.4149 -3.5560
H 1.4852 3.7963 -3.1935
H 3.1658 3.4907 -2.6396
H 0.6083 3.6838 -0.9169
H 1.9763 4.8387 -0.9390
H 2.0523 3.2835 1.0854
H 3.4831 3.2134 0.0228
H 3.5841 -5.0696 -0.0153
H 4.2871 -7.1524 0.0245
H 5.1587 -9.4317 0.0689
H 7.6007 -9.8469 0.0046
H 9.1774 -7.9407 -0.1230
H 8.3517 -5.6533 -0.1676
H 7.5580 -3.6289 -0.1365
H 5.8962 -1.5745 -0.0668
