60
 
P 1.2750 0.0000 0.0000
N 0.4754 1.5326 -0.2555
C 1.1195 2.5014 0.6941
C 2.6815 2.6164 0.4921
C 0.5443 3.9112 0.5531
C -0.9808 1.4181 -0.2408
C -1.4156 -0.0239 0.0116
C -2.9482 -0.0630 0.0063
C -0.8398 -0.9592 -1.1438
N 0.6550 -0.9512 -1.3526
C 1.2160 -2.3600 -1.2703
C 0.6607 -3.3577 -2.2862
C 2.7605 -2.4713 -1.3465
N 0.6492 -0.3651 1.6150
C 1.2197 -1.6688 2.1183
C 2.7710 -1.7136 2.1833
C 0.6700 -2.1330 3.4706
C -0.8479 -0.4511 1.4353
Au 3.7350 0.0003 -0.0005
N 5.8350 0.0006 -0.0009
C 6.4809 0.5565 1.0592
F 5.7643 1.0918 2.0772
C 7.8771 0.5748 1.1010
C 8.5977 0.0166 0.0435
F 9.9533 0.0249 0.0663
C 7.9168 -0.5506 -1.0368
C 6.5180 -0.5492 -1.0408
F 5.8409 -1.0962 -2.0790
H 0.9344 2.1791 1.7447
H 2.9648 2.8577 -0.5489
H 3.2640 1.7304 0.7372
H 3.0957 3.3848 1.1807
H 0.7456 4.3023 -0.4635
H 1.0132 4.5724 1.3137
H -0.5405 3.9463 0.7529
H -1.3508 1.7680 -1.2309
H -1.4341 2.0538 0.5411
H -3.3326 0.2700 -0.9834
H -3.3498 0.6269 0.7808
H -3.3119 -1.0880 0.2120
H -1.3009 -0.6743 -2.1133
H -1.2187 -1.9699 -0.8899
H 0.8881 -2.8255 -0.3616
H 0.9772 -3.0916 -3.3092
H -0.4378 -3.4590 -2.2256
H 1.0659 -4.3685 -2.0289
H 3.1432 -2.2274 -2.3522
H 3.0764 -3.5008 -1.0566
H 3.3115 -1.8467 -0.6725
H 0.8814 -2.4802 1.5027
H 3.1500 -1.0675 3.0003
H 3.3046 -1.4520 1.2564
H 3.0970 -2.7607 2.3642
H 0.9735 -1.4516 4.2839
H 1.0732 -3.1547 3.6738
H -0.4316 -2.2490 3.4580
H -1.3050 0.1993 2.2135
H -1.2300 -1.4774 1.6014
H 8.3937 1.0161 1.9439
H 8.4673 -0.9865 -1.8604
