86
 
P 1.2750 0.0000 0.0000
N 0.4087 1.5432 -0.1682
C 0.9555 2.5331 0.8352
C 2.4997 2.7696 0.6853
C 0.2359 3.9074 0.7959
C -1.0433 1.3863 -0.2062
C -1.4477 -0.0554 0.0396
C -2.9853 -0.1169 0.0444
C -0.8962 -0.9473 -1.1372
N 0.5929 -0.9391 -1.3562
C 1.1101 -2.3613 -1.2939
C 0.5026 -3.3689 -2.2853
C 2.6369 -2.4822 -1.4203
N 0.6436 -0.4186 1.6099
C 1.2120 -1.7156 2.1397
C 2.7388 -1.7248 2.2529
C 0.6462 -2.1594 3.4919
C -0.8550 -0.5100 1.4432
Au 3.7350 0.0003 -0.0005
C 5.8850 0.0006 -0.0009
N 6.6746 0.5537 -0.9694
C 6.1946 1.2895 -2.1494
C 6.6940 2.7323 -2.1145
C 6.6178 0.6124 -3.4683
C 7.9517 0.2800 -0.5904
C 7.9298 -0.4679 0.5591
C 9.1174 -0.8360 1.2151
C 10.3426 -0.4361 0.6568
C 10.3699 0.2856 -0.5481
C 9.1730 0.6474 -1.1881
N 6.6484 -0.7336 0.9110
C 6.2767 -1.6023 2.0844
C 6.6713 -3.1269 1.9911
C 7.6931 -3.5913 2.8513
C 8.2068 -4.8915 2.7765
C 7.6819 -5.8079 1.8746
C 6.5925 -5.4369 1.0821
C 6.0830 -4.1084 1.1294
H 0.8120 2.1425 1.8636
H 2.7884 3.1929 -0.3027
H 3.0997 1.8495 0.8717
H 2.8490 3.4956 1.4541
H 0.2786 4.3728 -0.2097
H 0.6852 4.6017 1.5389
H -0.8237 3.8451 1.1086
H -1.3969 1.7287 -1.2051
H -1.5484 1.9988 0.5568
H -3.3816 0.2284 -0.9372
H -3.3994 0.5506 0.8313
H -3.3400 -1.1497 0.2284
H -1.3699 -0.6417 -2.0950
H -1.2879 -1.9570 -0.8999
H 0.8027 -2.8033 -0.3640
H 0.7726 -3.1227 -3.3264
H -0.5936 -3.4833 -2.1890
H 0.9125 -4.3799 -2.0375
H 2.9741 -2.2633 -2.4498
H 2.9560 -3.5040 -1.1192
H 3.1631 -1.8505 -0.7385
H 0.9298 -2.5524 1.5228
H 3.0920 -0.9682 2.9800
H 3.2297 -1.5464 1.3013
H 3.1015 -2.7353 2.5499
H 0.9189 -1.4530 4.2956
H 1.0655 -3.1672 3.7304
H -0.4500 -2.3012 3.4567
H -1.3078 0.1146 2.2440
H -1.2225 -1.5457 1.5847
H 5.0825 1.3029 -2.1201
H 7.7910 2.7878 -2.2402
H 6.4312 3.1911 -1.1404
H 6.2346 3.3123 -2.9401
H 7.7175 0.6146 -3.6045
H 6.1826 1.1634 -4.3304
H 6.2638 -0.4385 -3.5135
H 9.1185 -1.3846 2.1431
H 11.2744 -0.6840 1.1517
H 11.3218 0.5750 -0.9782
H 9.2428 1.2070 -2.1039
H 5.2316 -1.4762 2.3682
H 6.8295 -1.1808 2.9519
H 8.1283 -2.9314 3.5821
H 9.0297 -5.1818 3.4185
H 8.1161 -6.8055 1.8103
H 6.1681 -6.1923 0.4232
H 5.2427 -3.8788 0.4874
