93
 
P 0.9384 -0.0735 -0.0282
C 0.1663 1.7648 -0.1116
C -1.3667 1.9218 -0.0761
C 0.6919 2.7182 0.9982
C 0.6016 2.5231 -1.3927
C 0.3848 -0.9883 -1.6776
C 0.9465 -0.3482 -2.9705
C 0.8815 -2.4520 -1.8131
C -1.1702 -1.1619 -1.7752
C 0.4384 -0.8540 1.6674
C -1.0976 -0.9207 1.8255
C 0.9235 -2.3163 1.7878
C 0.9893 -0.1345 2.9099
Au 3.3984 -0.0735 -0.0282
P 5.8584 -0.0735 -0.0282
C 6.8293 -1.6984 0.3559
C 6.5881 -2.4578 1.7338
C 5.1497 -2.9908 1.9384
C 4.7670 -3.9510 0.8084
C 5.0357 -3.2955 -0.5540
C 6.4994 -2.7993 -0.6855
C 6.1488 0.3168 -1.9629
C 5.5849 1.6869 -2.5249
C 6.4092 2.8897 -2.0748
C 7.9327 2.7751 -2.2996
C 8.4738 1.3958 -1.8885
C 7.6152 0.3045 -2.5324
C 6.4947 1.0893 1.4178
C 6.0744 2.5829 1.3414
C 4.5345 2.6636 1.3000
C 4.0386 2.2410 2.6852
C 4.5941 0.8613 3.0660
C 6.1081 0.7683 2.8833
H -1.8328 1.6519 0.8682
H -1.8673 1.4874 -0.9228
H -1.6529 2.9829 -0.2148
H 0.3133 2.5198 1.9995
H 0.3017 3.7519 0.8375
H 1.7903 2.8198 0.9755
H 0.0317 2.1984 -2.2602
H 1.7091 2.5624 -1.5224
H 0.2471 3.5774 -1.3914
H 2.0368 -0.5207 -3.0585
H 0.8393 0.6944 -3.1229
H 0.4376 -0.7763 -3.8648
H 1.9851 -2.5181 -1.8290
H 0.5112 -2.8763 -2.7825
H 0.4690 -3.1419 -1.0637
H -1.7848 -0.3144 -1.5762
H -1.5548 -1.9507 -1.0957
H -1.4917 -1.4616 -2.7950
H -1.5864 -1.4141 0.9713
H -1.5371 0.0577 2.0051
H -1.3922 -1.4851 2.7353
H 0.5388 -2.9496 0.9815
H 0.5191 -2.7781 2.7211
H 2.0251 -2.3946 1.8450
H 0.6047 0.8698 3.0365
H 2.0852 -0.1185 2.9100
H 0.6560 -0.6473 3.8394
H 7.9089 -1.4528 0.2994
H 6.9077 -1.9272 2.6175
H 7.2592 -3.3458 1.7777
H 4.4428 -2.1420 1.9739
H 5.0607 -3.5420 2.9070
H 3.6907 -4.2299 0.8957
H 5.3541 -4.8947 0.8981
H 4.3502 -2.4349 -0.6651
H 4.8110 -4.0348 -1.3518
H 6.6896 -2.4282 -1.7049
H 7.1824 -3.6724 -0.5342
H 5.6048 -0.4667 -2.5260
H 4.5196 1.8372 -2.2455
H 5.6420 1.7202 -3.6381
H 6.1718 2.8465 -1.0828
H 6.0375 3.8737 -2.4332
H 8.4884 3.5721 -1.7479
H 8.1306 2.9312 -3.3816
H 8.4629 1.2503 -0.7925
H 9.5328 1.3225 -2.2290
H 8.0904 -0.6881 -2.4737
H 7.6030 0.5385 -3.6343
H 7.6048 1.0675 1.3708
H 6.6721 3.1760 0.6648
H 6.4406 3.1725 2.2104
H 4.0919 1.9891 0.5217
H 4.1994 3.7012 1.0908
H 2.9360 2.2068 2.7257
H 4.3720 3.0114 3.4176
H 4.1505 0.1154 2.3816
H 4.3351 0.6471 4.1270
H 6.4754 -0.1640 3.2616
H 6.6244 1.4892 3.5677
