43
 
C -0.2555 -1.1732 0.0240
N 0.7169 -0.2739 0.6359
C 1.9630 -0.6298 1.4872
C 0.3040 1.0630 0.2581
C 0.8401 2.5486 0.5192
C -0.8431 0.9125 -0.5179
C -1.6665 2.0134 -1.1314
N -1.1630 -0.4006 -0.6709
C -2.3371 -0.8166 -1.4359
Au -0.5010 -3.4743 -0.0102
C -0.6956 -5.7962 -0.0113
N 0.1470 -6.9078 0.4337
C 1.5506 -6.8517 1.0754
C -0.5958 -8.1086 0.0978
C -0.3562 -9.6814 0.2510
C -1.7871 -7.6868 -0.4884
C -2.9054 -8.5655 -0.9945
N -1.8362 -6.3304 -0.5608
C -3.0152 -5.6478 -1.1097
H 2.0967 -1.7225 1.6426
H 1.9471 -0.1884 2.5116
H 2.9338 -0.2822 1.0472
H 1.7340 2.5267 1.1234
H 0.0979 3.2053 1.0436
H 1.0860 3.1105 -0.4203
H -1.2625 2.9920 -0.9149
H -2.6956 1.9653 -0.7471
H -1.7035 1.8805 -2.2209
H -2.8619 0.0583 -1.8454
H -3.0433 -1.3508 -0.8023
H -2.0389 -1.4422 -2.2689
H 1.9266 -5.8156 1.2182
H 2.3436 -7.3697 0.4814
H 1.5898 -7.3237 2.0815
H 0.6020 -9.8708 0.7101
H -0.3772 -10.2389 -0.7215
H -1.1336 -10.1925 0.8768
H -2.6852 -9.6164 -0.8647
H -3.0715 -8.3715 -2.0634
H -3.8356 -8.3334 -0.4576
H -3.7767 -6.3754 -1.4394
H -2.7416 -5.0526 -1.9727
H -3.4890 -5.0151 -0.3582
