58
 
C 2.3540 0.1137 -0.0417
N 1.5203 1.1976 0.0306
C 2.0082 2.5778 0.0423
C 2.9401 2.7368 1.2429
C 2.7902 2.8348 -1.2470
C 0.2513 0.7133 -0.0027
C 0.3223 -0.6609 -0.0510
C -0.8605 -1.4356 -0.0351
C -2.1079 -0.7800 -0.0032
C -2.1718 0.6203 0.0020
C -0.9974 1.3858 0.0052
N 1.6359 -1.0648 -0.0977
C 2.1296 -2.4890 -0.0408
C 2.3438 -2.9776 1.3939
C 1.2438 -2.8681 2.1864
C 1.3920 -2.7103 3.5428
C 2.5075 -3.2171 4.1698
C 3.5422 -3.7346 3.3868
C 3.5243 -3.4665 1.9885
Au 4.5077 0.3582 -0.0280
P 6.8779 0.5811 -0.0232
N 7.8769 1.7678 0.7453
C 7.4772 1.8165 2.1727
C 9.2718 1.5547 0.4893
O 7.6555 -0.8316 0.6793
C 7.3969 -1.9952 -0.0925
O 7.3763 0.5989 -1.6781
C 6.7711 1.6549 -2.3709
H 1.1689 3.3162 0.0848
H 3.7606 1.9584 1.2240
H 2.3502 2.6060 2.1719
H 3.3805 3.7539 1.2345
H 3.6225 2.1026 -1.3114
H 3.2312 3.8524 -1.2660
H 2.1040 2.7279 -2.1152
H -0.8518 -2.5152 -0.0442
H -3.0358 -1.3424 0.0111
H -3.1325 1.1236 0.0128
H -1.1257 2.4562 0.0195
H 3.0777 -2.5590 -0.5779
H 1.3511 -3.1476 -0.4781
H 0.3028 -2.8056 1.7136
H 0.6044 -2.2315 4.0823
H 2.5103 -3.2288 5.2531
H 4.3589 -4.2236 3.8949
H 4.3792 -3.6544 1.3689
H 6.3511 1.7794 2.3018
H 7.8387 2.7504 2.6395
H 7.9177 0.9817 2.7500
H 9.4028 1.5324 -0.6102
H 9.6033 0.5978 0.9270
H 9.8262 2.4142 0.8984
H 7.9703 -2.8966 0.2683
H 7.6779 -1.9095 -1.1694
H 6.3305 -2.2251 0.0412
H 7.0484 1.6240 -3.4522
H 7.0738 2.6400 -1.9538
H 5.6893 1.4942 -2.4232
