32
 
C 1.0240 -0.6530 -0.0550
N 1.0488 0.6209 -0.0670
C 2.2565 1.3957 -0.2003
C -0.2739 1.1735 0.1206
C -1.1918 -0.0538 0.0113
N -0.2732 -1.1595 0.1438
C -0.6178 -2.5192 0.4079
C 0.2186 -3.5751 -0.0052
C -0.1480 -4.9027 0.2629
C -1.3157 -5.1862 0.9799
C -2.1300 -4.1462 1.4243
C -1.7945 -2.8235 1.1284
Au 2.7802 -1.8697 -0.2955
C 4.5364 -3.0865 -0.5360
N 4.5527 -4.4217 -0.3643
C 5.8342 -4.7600 -0.5927
C 6.5360 -3.6250 -0.9313
O 5.7137 -2.6062 -0.8642
H 3.1431 0.7148 -0.3127
H 2.3806 2.0373 0.6993
H 2.1708 2.0538 -1.0916
H -0.5486 1.9398 -0.6359
H -0.3175 1.6036 1.1450
H -1.5985 -0.1243 -1.0255
H -2.0265 -0.0113 0.7365
H 1.1274 -3.3842 -0.5570
H 0.4732 -5.7179 -0.0819
H -1.5899 -6.2113 1.1977
H -3.0229 -4.3641 1.9999
H -2.4457 -2.0443 1.4990
H 6.2290 -5.7645 -0.5214
H 7.5814 -3.5638 -1.2030
