50
 
C 0.9063 -0.6743 -0.0035
N 0.4767 0.0682 -1.0542
C 1.0989 0.1419 -2.3638
C -0.6387 0.7103 -0.6501
C -0.8977 0.3330 0.6498
N 0.0847 -0.5087 1.0587
C 0.2474 -1.0991 2.3651
C -0.6422 -0.7951 3.4103
C -0.3868 -1.2456 4.7077
C 0.7341 -2.0338 4.9737
C 1.5975 -2.3807 3.9429
C 1.3644 -1.9037 2.6626
Au 2.6598 -1.8754 -0.0083
P 4.6726 -3.2500 -0.0258
C 5.8174 -3.0718 -1.4115
C 5.7179 -2.7832 1.3900
C 5.4022 -1.7304 2.2592
C 6.2711 -1.4187 3.3282
C 7.4508 -2.1476 3.5364
C 7.7468 -3.2158 2.7103
C 6.8925 -3.5247 1.6619
C 4.1875 -5.0442 -0.2471
C 3.4714 -5.4840 -1.3781
C 3.2213 -6.8356 -1.6114
C 3.6311 -7.7856 -0.6869
C 4.3176 -7.3824 0.4658
C 4.6113 -6.0215 0.6869
H 1.9987 -0.5132 -2.3903
H 1.3782 1.1851 -2.6222
H 0.3641 -0.2354 -3.1052
H -1.2313 1.3859 -1.2543
H -1.7313 0.6786 1.2457
H -1.5106 -0.1772 3.2473
H -1.0513 -0.9659 5.5105
H 0.9446 -2.3643 5.9788
H 2.4738 -2.9892 4.1318
H 2.1009 -2.1481 1.9594
H 6.0992 -1.9797 -1.4547
H 5.2304 -3.2539 -2.3228
H 6.7072 -3.7188 -1.3920
H 4.4830 -1.1814 2.1318
H 6.0330 -0.6184 4.0092
H 8.1305 -1.9111 4.3457
H 8.6363 -3.8203 2.8757
H 7.1894 -4.3856 1.1091
H 3.1084 -4.8168 -2.1337
H 2.7121 -7.1413 -2.5216
H 3.4135 -8.8305 -0.8751
H 4.6330 -8.1334 1.1744
H 5.1762 -5.7230 1.5637
