45
 
P 1.0774 -0.0121 -0.0621
O -0.0718 0.0425 1.1844
C 0.4526 -0.8407 2.1874
O 0.5828 1.3781 -0.9172
C 1.1897 1.3476 -2.1913
O 0.7325 -1.6616 -0.3687
C 1.3485 -2.0742 -1.5480
Au 3.5374 -0.0121 -0.0621
P 5.9974 -0.0121 -0.0621
N 6.9904 -0.2652 1.4364
C 6.6645 0.7022 2.5264
C 6.6550 -1.5878 2.0419
N 6.4696 -1.5408 -0.8924
C 6.0289 -1.5889 -2.2977
C 7.9376 -1.7576 -0.8810
N 6.4534 1.6809 -0.4789
C 7.9116 1.8512 -0.6487
C 5.8138 2.1425 -1.7320
H 0.1508 -0.5415 3.2091
H 1.5778 -0.9042 2.2466
H 0.0740 -1.8691 2.0040
H 0.7277 2.1295 -2.8283
H 1.0069 0.4158 -2.7590
H 2.2764 1.5561 -2.1125
H 1.2007 -3.1707 -1.6266
H 2.4412 -1.8780 -1.5181
H 0.8348 -1.6582 -2.4332
H 6.9446 1.7440 2.2898
H 7.2395 0.4436 3.4529
H 5.5911 0.6639 2.8461
H 6.7018 -2.4374 1.3423
H 5.6259 -1.6242 2.4712
H 7.3808 -1.8251 2.8523
H 4.9337 -1.4545 -2.3915
H 6.2666 -2.5939 -2.7238
H 6.5686 -0.8460 -2.9283
H 8.3612 -1.8584 0.1337
H 8.4843 -0.9352 -1.3799
H 8.1868 -2.7213 -1.3777
H 8.4739 1.4926 0.2329
H 8.1485 2.9352 -0.7588
H 8.2957 1.3539 -1.5697
H 4.7107 2.1493 -1.6477
H 6.1238 1.5432 -2.6203
H 6.1170 3.1958 -1.9512
