23
 
N -1.3946 -0.1089 -0.0752
C -0.5538 -0.0265 -1.1792
C 0.8194 -0.2659 -1.0640
C 1.3768 -0.2977 0.1455
Cl 3.1089 -0.6121 0.3081
C 0.5726 -0.0824 1.2621
C -0.8251 -0.1430 1.1550
Au -3.4746 -0.2035 -0.2782
N -5.5570 -0.2985 -0.5027
C -6.4117 -0.2592 0.6000
C -7.7569 -0.6216 0.4810
C -8.2979 -0.7358 -0.7310
Cl -9.9941 -1.2056 -0.8966
C -7.5050 -0.4817 -1.8475
C -6.1085 -0.4158 -1.7281
H -0.9442 0.2024 -2.1286
H 1.4236 -0.4123 -1.8990
H 1.0224 0.1065 2.1858
H -1.4276 -0.2008 2.0085
H -6.0511 0.0292 1.5442
H -8.3536 -0.7974 1.3156
H -7.9610 -0.3586 -2.7794
H -5.4953 -0.4445 -2.5763
