26
 
N -1.3906 -0.1009 -0.0440
C -0.5254 -0.6825 -0.9930
C 0.8274 -0.8726 -0.6880
C 1.3460 -0.2642 0.3591
F 2.6306 -0.4478 0.6579
C 0.5446 0.5664 1.1411
C -0.8560 0.5156 1.0151
Au -3.4782 -0.2037 -0.2870
N -5.5591 -0.2899 -0.5061
C -6.1351 -1.0019 -1.5861
C -7.4837 -0.8180 -1.9117
C -8.2823 -0.2041 -1.0582
C -9.7342 0.0084 -1.4064
C -7.7654 0.2409 0.1608
C -6.3738 0.3235 0.3535
H -0.8855 -0.9855 -1.9252
H 1.4288 -1.4797 -1.2739
H 0.9858 1.2143 1.8242
H -1.4719 0.9565 1.7279
H -5.5605 -1.6644 -2.1550
H -7.8702 -1.1585 -2.8111
H -9.9443 -0.3970 -2.3801
H -9.9517 1.0631 -1.4113
H -10.3554 -0.4770 -0.6786
H -8.4161 0.5212 0.9219
H -5.9765 0.8511 1.1556
