20
 
N -1.3934 -0.0928 -0.0495
C -0.7341 1.1305 0.0977
C 0.6553 1.2123 -0.0483
C 1.3712 0.1086 -0.0512
C 0.7418 -1.1253 0.1042
C -0.6540 -1.2260 -0.0491
Au -3.4789 -0.2073 -0.2741
N -5.5402 -0.2980 -0.4945
C -6.3113 -1.3821 -0.7228
O -7.5877 -0.9804 -0.7882
C -7.5969 0.3147 -0.6141
C -6.3789 0.7349 -0.4486
H -1.2777 1.9945 0.3125
H 1.1285 2.1281 -0.1516
H 2.3998 0.1678 -0.1645
H 1.3069 -1.9694 0.3238
H -1.1118 -2.1539 -0.1568
H -5.9579 -2.3626 -0.8301
H -8.4347 0.9207 -0.6086
H -6.1068 1.7183 -0.2933
