26
 
N -1.3900 -0.1120 -0.0540
C -0.8051 1.1113 0.0317
C 0.5854 1.2275 0.0534
C 1.3726 0.0719 -0.0444
C 2.8684 0.1678 -0.1189
C 0.7445 -1.1809 -0.1070
C -0.6532 -1.2530 -0.0985
Au -3.4756 -0.2017 -0.2821
O -5.5116 -0.2893 -0.5047
C -5.8297 -1.6324 -0.4025
C -7.3351 -1.7912 -0.6292
C -4.9826 -2.3813 -1.4164
H -1.4257 1.9967 0.0749
H 1.0387 2.2091 0.1163
H 3.2094 1.2256 -0.1209
H 3.2139 -0.3001 -1.0663
H 3.3344 -0.3592 0.7379
H 1.3310 -2.0869 -0.1969
H -1.1492 -2.2091 -0.2001
H -5.5817 -1.9931 0.6162
H -7.6320 -1.4297 -1.6380
H -7.8806 -1.1831 0.1267
H -7.6439 -2.8502 -0.5130
H -5.2117 -2.0210 -2.4473
H -5.2029 -3.4694 -1.3766
H -3.9067 -2.1769 -1.1513
