65
 
P 0.9335 0.0626 -0.0408
O -0.2487 -0.8220 0.7961
C 0.3012 -2.1478 0.8788
O 0.3516 1.6458 0.2279
C 0.5307 2.0020 1.5696
O 0.6620 -0.8499 -1.4593
C 1.2126 -0.1805 -2.5491
Au 3.3935 0.0626 -0.0408
P 5.8535 0.0626 -0.0408
N 6.6675 -1.4783 -0.2884
C 6.0792 -2.4647 0.6867
C 4.5309 -2.6054 0.5668
C 6.6386 -3.8745 0.5029
C 8.1216 -1.3534 -0.2890
C 8.5496 0.0881 -0.0311
C 10.0825 0.1289 -0.0357
C 7.9725 1.0234 -1.1841
N 6.4782 1.0093 -1.3949
C 5.9116 2.4143 -1.3185
C 6.4697 3.4150 -2.3351
C 4.3652 2.5059 -1.3994
N 6.4891 0.4284 1.5761
C 5.9322 1.7312 2.0971
C 4.3967 1.7677 2.2012
C 6.4769 2.1819 3.4505
C 7.9846 0.5119 1.3940
H -0.0101 -2.6782 1.7989
H 1.4276 -2.2158 0.9057
H -0.0361 -2.7413 0.0020
H 0.1775 3.0497 1.6818
H 1.6019 1.9980 1.8488
H -0.0948 1.3813 2.2457
H 1.0256 -0.8133 -3.4435
H 2.3111 -0.0904 -2.4247
H 0.7083 0.7936 -2.7315
H 6.2964 -2.1418 1.7293
H 4.2157 -2.8815 -0.4644
H 4.0154 -1.6980 0.8865
H 4.1389 -3.3740 1.2674
H 6.3963 -4.2462 -0.5132
H 6.1785 -4.5457 1.2623
H 7.7266 -3.9198 0.6707
H 8.4864 -1.6996 -1.2819
H 8.5836 -1.9915 0.4875
H 10.4680 -0.2040 -1.0249
H 10.4843 -0.5613 0.7388
H 10.4460 1.1535 0.1714
H 8.4358 0.7409 -2.1534
H 8.3484 2.0353 -0.9295
H 6.2304 2.8808 -0.4034
H 6.1600 3.1504 -3.3606
H 7.5688 3.5201 -2.2736
H 6.0637 4.4264 -2.0824
H 3.9824 2.2602 -2.4036
H 4.0454 3.5344 -1.1095
H 3.8294 1.8874 -0.7131
H 6.2581 2.5464 1.4734
H 4.0108 1.0856 2.9817
H 3.9075 1.4978 1.2870
H 4.0500 2.8087 2.3850
H 6.1577 1.4955 4.2549
H 6.0685 3.2019 3.6561
H 7.5765 2.2941 3.4425
H 8.4413 -0.1398 2.1710
H 8.3668 1.5381 1.5629
