14
 
N -1.3900 -0.1120 -0.0540
C -0.8116 1.0948 0.1861
C 0.5825 1.2103 0.1977
C 1.3645 0.0627 0.0439
F 2.7173 0.1520 0.0645
C 0.7477 -1.1761 -0.1439
C -0.6458 -1.2368 -0.2281
Au -3.4756 -0.2017 -0.2821
C -5.6110 -0.2936 -0.5156
O -6.8207 -0.3457 -0.6479
H -1.4308 1.9785 0.2680
H 1.0510 2.1800 0.3088
H 1.3420 -2.0754 -0.2437
H -1.1406 -2.1852 -0.3913
