32
 
N -1.4003 -0.1013 -0.0441
C -0.5784 -1.1892 -0.3511
C 0.7514 -1.2362 0.0737
C 1.3150 -0.1299 0.5417
C 0.5828 1.0489 0.5776
C -0.8111 1.0221 0.4187
Au -3.4763 -0.2111 -0.2798
N -5.5460 -0.2765 -0.5122
C -6.1851 -1.5125 -0.5699
C -5.3980 -2.7857 -0.4940
C -7.5212 -1.5824 -0.7256
C -8.2756 -0.4753 -0.8014
C -9.7598 -0.6094 -0.9574
C -7.6818 0.7682 -0.7355
C -6.3003 0.8698 -0.5986
C -5.6403 2.2259 -0.5231
H -0.9522 -1.9970 -0.9165
H 1.3105 -2.1120 0.0339
H 2.3028 -0.1627 0.8670
H 1.0758 1.9564 0.7367
H -1.3963 1.8507 0.6660
H -4.3515 -2.5532 -0.3790
H -5.5326 -3.3680 -1.3930
H -5.7238 -3.3694 0.3532
H -7.9775 -2.5078 -0.7813
H -10.0416 -1.6507 -0.9901
H -10.0746 -0.1326 -1.8719
H -10.2577 -0.1381 -0.1249
H -8.2750 1.6241 -0.7950
H -6.3803 3.0086 -0.6023
H -4.9343 2.3292 -1.3319
H -5.1185 2.3324 0.4149
