20
 
N -1.4017 -0.0862 -0.0451
C -0.7401 1.1271 0.0871
C 0.6464 1.2189 -0.0479
F 1.2631 2.3966 -0.1784
C 1.3708 0.0981 -0.0511
C 0.7379 -1.1246 0.1045
C -0.6545 -1.2167 -0.0376
Au -3.4742 -0.1957 -0.2830
N -5.5316 -0.3548 -0.5394
C -6.4889 0.5100 -0.1312
O -7.6739 0.0542 -0.5060
C -7.4666 -1.0628 -1.1548
C -6.1751 -1.3212 -1.1672
H -1.2826 2.0018 0.3011
H 2.4079 0.1676 -0.1585
H 1.3116 -1.9773 0.3126
H -1.1153 -2.1593 -0.1507
H -6.3113 1.3959 0.4379
H -8.1848 -1.6728 -1.5931
H -5.7357 -2.1364 -1.6243
