40
 
O 0.9994 -0.0827 -0.0562
C 0.5961 1.1567 -0.5498
C 1.0924 2.2557 0.3702
C 1.1307 1.3399 -1.9602
Au 3.0494 -0.0827 -0.0562
P 5.5094 -0.0827 -0.0562
N 6.5089 -1.2959 0.8393
C 6.1716 -1.3362 2.2896
C 6.1596 -2.6669 0.3647
N 5.9863 -0.5918 -1.7155
C 5.5406 0.3600 -2.7453
C 7.4559 -0.7384 -1.8535
N 5.9708 1.4204 0.8178
C 7.4296 1.6470 0.8104
C 5.3517 2.6175 0.2128
H -0.5155 1.1839 -0.5728
H 2.1942 2.2078 0.3952
H 0.6926 2.1078 1.3955
H 0.7624 3.2502 -0.0012
H 2.2446 1.3094 -1.9275
H 0.7857 2.3132 -2.3733
H 0.7420 0.5294 -2.6145
H 6.4438 -0.4098 2.8254
H 6.7368 -2.1606 2.7939
H 5.0924 -1.5689 2.4758
H 6.2244 -2.8017 -0.7279
H 5.1199 -2.9664 0.6383
H 6.8626 -3.4111 0.8021
H 4.4448 0.5070 -2.7196
H 5.7870 -0.0464 -3.7552
H 6.0664 1.3370 -2.6583
H 7.8834 -1.5146 -1.1939
H 7.9894 0.2058 -1.6391
H 7.7153 -1.0723 -2.8817
H 7.9850 0.7769 1.2058
H 7.6756 2.5115 1.4690
H 7.8100 1.9091 -0.2029
H 4.2581 2.5672 0.2607
H 5.6656 2.7768 -0.8434
H 5.6492 3.5340 0.7769
