48
 
P 1.0489 -0.0145 0.0860
O -0.0045 -0.6526 1.2794
C 0.5141 -1.9680 1.5287
C -0.1931 -2.6868 2.6631
O 0.5318 1.6090 0.0331
C 0.7809 2.2566 1.2444
C 2.2775 2.3766 1.5044
O 0.5791 -1.1268 -1.1399
C -0.8420 -1.0411 -1.2730
C -1.3730 -2.0861 -2.2332
Au 3.5089 -0.0145 0.0860
C 5.6589 -0.0145 0.0860
N 6.4184 1.0586 0.3692
C 5.9591 2.3958 0.7028
C 7.6958 0.6517 0.2783
C 7.6946 -0.6842 -0.0667
N 6.4102 -1.0972 -0.1953
C 5.9281 -2.4074 -0.5695
C 6.8277 -3.4626 -0.8175
C 6.3585 -4.7209 -1.2024
C 4.9886 -4.9487 -1.3400
C 4.0841 -3.9189 -1.0935
C 4.5465 -2.6608 -0.7159
H 1.6060 -1.9634 1.7737
H 0.3497 -2.6280 0.6486
H 0.0452 -2.2181 3.6379
H 0.1633 -3.7442 2.6869
H -1.2869 -2.6955 2.4858
H 0.2172 1.7908 2.0802
H 0.3738 3.2860 1.1288
H 2.7505 1.3866 1.6725
H 2.4427 2.9989 2.4033
H 2.7296 2.8587 0.6150
H -1.1523 -0.0318 -1.6186
H -1.3882 -1.2870 -0.3364
H -0.9745 -1.9080 -3.2488
H -2.4850 -2.0178 -2.2567
H -1.0982 -3.1039 -1.8807
H 4.8588 2.4205 0.7028
H 6.3331 3.1205 -0.0511
H 6.3268 2.6821 1.7095
H 8.5624 1.2781 0.4474
H 8.5782 -1.2875 -0.2155
H 7.8942 -3.3260 -0.7217
H 7.0609 -5.5195 -1.3972
H 4.6270 -5.9221 -1.6398
H 3.0199 -4.0893 -1.1981
H 3.8066 -1.9197 -0.5504
