31
 
N -0.6814 1.2139 -0.0092
C -1.4146 0.0549 0.0939
F -2.7644 0.1349 0.1876
C -0.7836 -1.1930 0.0870
C 0.6083 -1.2511 -0.0076
F 1.2390 -2.4516 -0.0127
C 1.3476 -0.0685 -0.0971
C 0.6768 1.1605 -0.0963
F 1.3732 2.3185 -0.1859
Au -1.6944 3.0314 0.0026
N -2.6964 4.8725 0.0145
C -4.0204 5.0937 0.0869
N -4.2834 6.4206 0.0717
C -5.5753 7.0618 0.0718
C -6.7617 6.3000 0.0885
C -8.0053 6.9264 -0.0170
C -8.0841 8.3159 -0.1217
C -6.9205 9.0841 -0.1025
C -5.6759 8.4651 -0.0082
C -3.0753 7.0302 -0.0040
C -2.1015 6.0667 -0.0486
H -1.3667 -2.1029 0.1535
H 2.4273 -0.1048 -0.1675
H -4.7503 4.2988 0.1475
H -6.7410 5.2218 0.1534
H -8.9080 6.3303 -0.0332
H -9.0460 8.7985 -0.2204
H -6.9762 10.1617 -0.1773
H -4.8001 9.0954 -0.0153
H -2.8901 8.0927 -0.0461
H -1.0333 6.2177 -0.1232
