34
 
N -0.6790 1.1930 0.0010
C -0.4428 0.5856 1.1934
F -0.8809 1.1661 2.3371
C 0.2072 -0.6504 1.2341
C 0.6403 -1.2314 0.0399
F 1.2874 -2.4226 0.0599
C 0.4037 -0.5810 -1.1746
C -0.2823 0.6381 -1.1745
F -0.5184 1.2906 -2.3385
Au -1.6914 3.0329 0.0055
P -2.8773 5.1881 0.0107
C -2.6579 6.3442 1.4071
C -2.2551 6.0751 -1.4442
C -4.6662 4.7802 0.1632
C -4.9366 4.0249 1.4658
C -5.5048 6.0819 0.1182
C -5.0684 3.9044 -1.0358
H 0.3725 -1.1513 2.1795
H 0.7470 -1.0174 -2.1037
H -1.5637 6.5559 1.4454
H -2.8728 5.8401 2.3704
H -3.1788 7.3081 1.3076
H -1.1623 6.2405 -1.3198
H -2.7432 7.0736 -1.4795
H -2.4539 5.5190 -2.3771
H -4.6900 4.6448 2.3485
H -4.3303 3.0954 1.4953
H -6.0130 3.7636 1.5402
H -5.2705 6.7566 0.9649
H -6.5902 5.8594 0.1828
H -5.3244 6.6437 -0.8259
H -4.4767 2.9656 -1.0513
H -4.8982 4.4404 -1.9963
H -6.1477 3.6418 -0.9823
