55
 
N -0.6790 1.1930 0.0010
C -1.0431 0.2557 0.9137
C -2.1669 0.5553 1.8421
C -0.3991 -0.9888 0.9454
C 0.6296 -1.2576 0.0368
C 1.3314 -2.5855 0.0546
C 0.9918 -0.2742 -0.8937
C 0.3131 0.9583 -0.9040
C 0.6904 2.0331 -1.8756
Au -1.6914 3.0329 0.0055
P -2.8773 5.1881 0.0107
O -2.7169 6.5885 0.9740
C -1.3162 6.6558 1.3210
C -0.4966 7.3134 0.1934
C -1.0829 7.4747 2.5956
O -2.3358 5.9552 -1.4168
C -2.6421 5.2378 -2.5846
C -4.1520 5.0415 -2.7625
C -2.1197 6.0678 -3.7663
O -4.5403 4.9806 0.3523
C -4.8215 4.1421 1.4295
C -4.4654 4.8469 2.7326
C -6.3390 3.8951 1.3967
H -2.5644 1.5995 1.5967
H -1.7965 0.4711 2.8887
H -2.9467 -0.2347 1.7101
H -0.7019 -1.7425 1.6627
H 0.9204 -3.2513 0.8444
H 2.4137 -2.4391 0.2535
H 1.2022 -3.0921 -0.9249
H 1.7926 -0.4686 -1.5982
H 1.5256 1.7044 -2.5334
H 1.0155 2.9394 -1.3226
H -0.1831 2.2914 -2.5063
H -0.8718 5.6527 1.5631
H -0.9869 8.2658 -0.0976
H -0.3785 6.6659 -0.6904
H 0.5512 7.4927 0.4986
H -1.4751 8.5027 2.4736
H 0.0154 7.5448 2.7932
H -1.5369 6.9928 3.4854
H -2.1041 4.2640 -2.5878
H -4.6690 6.0231 -2.6830
H -4.5415 4.3524 -1.9924
H -4.3741 4.5720 -3.7407
H -2.6008 7.0720 -3.7822
H -2.3377 5.5581 -4.7284
H -1.0207 6.2142 -3.6897
H -4.3127 3.1571 1.3272
H -4.9277 5.8600 2.7382
H -3.3662 4.9472 2.8181
H -4.8296 4.2627 3.5983
H -6.8937 4.8610 1.4361
H -6.6505 3.2741 2.2613
H -6.6410 3.3723 0.4624
