34
 
N 1.0676 0.0547 0.0494
C 0.6076 1.3785 -0.3917
C 0.6073 -0.9886 -0.8770
C 0.6125 -0.2257 1.4174
Au 3.1676 0.0547 0.0494
P 5.6276 0.0547 0.0494
N 6.5443 -0.9189 1.2144
C 6.1962 -2.3548 1.1791
C 7.9654 -0.6569 1.2808
O 6.1587 -0.6987 -1.3844
C 5.7812 0.1250 -2.4634
O 5.9399 1.5512 0.8104
C 5.5525 2.5920 -0.0560
H -0.5045 1.4294 -0.4097
H 0.9953 1.5992 -1.4094
H 0.9922 2.1663 0.2908
H -0.5048 -1.0283 -0.9134
H 0.9917 -1.9815 -0.5595
H 0.9948 -0.7911 -1.8995
H -0.4996 -0.2374 1.4737
H 1.0014 0.5450 2.1164
H 1.0017 -1.2093 1.7568
H 5.0967 -2.5129 1.0789
H 6.4810 -2.8349 2.1432
H 6.7185 -2.8888 0.3583
H 8.1183 0.4162 1.5083
H 8.4505 -0.9443 0.3305
H 8.3925 -1.2337 2.1316
H 6.2824 -0.2426 -3.3829
H 6.1310 1.1748 -2.3564
H 4.6822 0.0786 -2.6275
H 5.4045 3.5087 0.5507
H 4.5769 2.4008 -0.5590
H 6.3538 2.8235 -0.7914
