40
 
N 1.0220 -0.0903 0.0369
C 1.0678 -0.2306 -1.4334
C 0.2478 -1.2928 0.4351
C 0.3922 1.1402 0.4207
C -0.6382 1.7286 -0.3513
C -1.2413 2.9177 0.0553
C -0.8492 3.5277 1.2464
C 0.1440 2.9432 2.0369
C 0.7639 1.7564 1.6265
Au 3.1220 -0.0903 0.0369
N 5.2220 -0.0903 0.0369
C 5.9431 1.0755 -0.0684
N 5.2526 2.3402 -0.0851
C 3.8021 2.3531 0.0683
C 5.9324 3.6373 -0.1785
C 7.3566 0.9820 -0.1620
C 7.9788 -0.2624 -0.1440
C 7.2161 -1.4160 -0.0264
C 5.8286 -1.3089 0.0638
H 0.3702 -0.8705 -2.0192
H 1.9178 -0.9383 -1.5788
H 1.5169 0.6577 -1.9301
H -0.8094 -1.0139 0.6720
H 0.7111 -1.8348 1.2716
H 0.0803 -2.0755 -0.3528
H -0.9759 1.2723 -1.2726
H -2.0172 3.3610 -0.5552
H -1.3230 4.4487 1.5593
H 0.4301 3.4109 2.9701
H 1.5235 1.3107 2.2562
H 3.4919 1.7164 0.8955
H 3.2886 2.0555 -0.8501
H 3.4728 3.3645 0.3825
H 7.0328 3.6011 -0.2014
H 5.6696 4.2683 0.6940
H 5.6216 4.1639 -1.1076
H 8.0146 1.8264 -0.2592
H 9.0577 -0.3280 -0.2265
H 7.6989 -2.3844 -0.0199
H 5.2253 -2.2036 0.1335
