17
 
N -0.3280 -1.0820 0.0030
C 0.9200 -0.5889 0.0281
O 0.9037 0.7275 0.0112
C -0.3574 1.1068 -0.0271
C -1.1457 -0.0222 -0.0317
Au -0.9301 -3.0938 0.0163
O -1.5178 -5.0577 0.0293
C -0.7281 -6.1006 0.0527
N -1.4461 -7.2432 0.0682
C -2.7329 -6.8327 0.0522
C -2.7608 -5.4561 0.0260
H 1.8162 -1.1930 0.0634
H -0.7003 2.1326 -0.0511
H -2.2261 -0.0728 -0.0611
H 0.3523 -6.0560 0.0630
H -3.5911 -7.4914 0.0621
H -3.6278 -4.8089 0.0116
