23
 
N 1.0697 0.0518 0.0495
C 1.1699 -1.3665 -0.4005
C 0.4279 0.0598 1.3592
C 0.2192 0.4834 -1.1136
C -0.7702 -0.3931 -1.7636
C -1.2815 -0.1423 -3.0254
C -0.9900 1.0503 -3.6496
C -0.2108 2.0067 -2.9875
C 0.4057 1.7249 -1.7442
Au 3.1697 0.0518 0.0495
C 5.3197 0.0518 0.0495
O 6.5378 0.0518 0.0495
H 1.0293 -1.7692 -1.4400
H 1.6586 -2.0441 0.3234
H 2.1063 -1.2741 -1.0093
H -0.6793 0.1029 1.2681
H 0.8230 0.8697 1.9955
H 0.6334 -0.8900 1.9179
H -1.0391 -1.3747 -1.3738
H -1.8732 -0.9057 -3.5285
H -1.3802 1.2240 -4.6458
H -0.0450 2.9518 -3.4792
H 1.0499 2.4656 -1.3002
