85
 
C 0.9010 -0.6430 -0.0020
N -0.3922 -1.2023 -0.2048
C -1.0890 -2.5951 -0.4629
C -2.5185 -2.7693 -0.1172
C -3.4161 -1.6983 0.5731
C -4.8931 -2.0144 0.8256
C -2.8225 -1.2925 1.9407
C -3.1555 -4.0280 -0.3126
C -2.5147 -5.1521 -0.7716
C -1.2048 -5.1079 -1.0367
C -0.4860 -3.9301 -0.9049
C 0.9624 -4.3324 -1.0081
C 1.7021 -3.8798 -2.2605
C 1.4416 -3.8270 0.2563
C -1.1143 -0.0593 -0.3350
C -0.4305 1.0740 0.0026
N 0.8578 0.7837 0.1860
C 1.8808 1.8984 0.4112
C 1.7807 3.1456 1.2121
C 0.6322 3.5991 2.1151
C 1.1087 3.9205 3.5551
C 0.0091 4.8884 1.5310
C 2.8223 4.1339 1.1224
C 3.9142 3.9903 0.3019
C 4.0011 2.8742 -0.4842
C 3.0061 1.8788 -0.4305
C 2.8687 0.9668 -1.5521
C 1.8761 1.7722 -2.5183
C 4.0826 0.4650 -2.2225
Au 2.6584 -1.8814 -0.0135
N 4.3750 -3.0911 -0.0247
C 5.3389 -3.2616 -1.0932
N 5.3898 -2.7146 -2.4956
C 6.6816 -2.7210 -3.1912
C 4.3702 -2.5950 -3.5618
C 6.3505 -4.2532 -0.8869
C 6.4953 -4.9566 0.2754
C 5.6102 -4.7437 1.2950
C 4.5490 -3.8525 1.1192
H -3.5945 -0.8729 -0.0971
H -5.0222 -2.7892 1.6060
H -5.4020 -2.2937 -0.1210
H -5.3819 -1.0760 1.1800
H -2.7239 -2.1874 2.5921
H -3.4750 -0.5536 2.4531
H -1.8293 -0.8283 1.8714
H -4.1839 -4.1977 -0.0736
H -3.0079 -6.1059 -0.8769
H -0.7261 -6.0516 -1.3120
H 1.2274 -5.4188 -0.9166
H 1.4743 -2.8204 -2.4948
H 1.4498 -4.5109 -3.1431
H 2.7894 -4.0539 -2.0865
H 1.1648 -2.8768 0.0819
H 2.4297 -3.9566 0.2921
H 1.1637 -3.7970 1.2977
H -2.0833 0.0483 -0.7017
H -0.8668 2.0638 0.0040
H -0.1466 2.8177 2.1602
H 1.9024 4.7016 3.5824
H 1.5084 3.0173 4.0538
H 0.2684 4.3317 4.1549
H 0.7189 5.7465 1.5588
H -0.8773 5.2133 2.1134
H -0.2843 4.7131 0.4768
H 2.7967 5.0811 1.6524
H 4.6536 4.7855 0.2179
H 4.8024 2.8410 -1.2088
H 2.7063 -0.0275 -1.1033
H 2.0475 2.8879 -2.4561
H 0.7992 1.7230 -2.2350
H 1.9832 1.5675 -3.5943
H 4.4722 1.2085 -2.9157
H 3.6932 -0.3926 -2.7876
H 4.8173 0.0932 -1.4673
H 7.5325 -2.6905 -2.4914
H 6.7970 -1.8083 -3.8058
H 6.7596 -3.6172 -3.8641
H 3.3434 -2.4506 -3.3007
H 4.4569 -3.4135 -4.3255
H 4.5866 -1.6874 -4.1769
H 7.0544 -4.5583 -1.6486
H 7.3005 -5.6807 0.3614
H 5.7467 -5.2945 2.2153
H 3.8761 -3.7257 1.9548
