77
 
P 1.0235 0.0712 0.0661
C 0.1630 -1.4121 -0.6483
C 0.5851 -1.6438 -2.1073
C 0.2428 -3.0924 -2.3559
C 0.7879 -3.7748 -1.1216
C 0.6579 -2.7304 0.0041
C 0.5463 0.1307 1.8558
C 1.0790 -0.9878 2.7327
C 0.8491 -0.4204 4.1268
C 1.3283 1.0173 4.0127
C 1.0530 1.3966 2.5538
C 0.5284 1.4839 -1.0085
C 1.0885 2.8040 -0.4986
C 0.9042 3.7208 -1.6877
C 1.3660 2.8532 -2.8457
C 0.9914 1.4210 -2.4638
Au 3.4835 0.0712 0.0661
C 5.6335 0.0712 0.0661
N 6.3920 0.8894 0.8125
C 5.8900 1.8962 1.7420
C 4.3435 1.9106 1.6537
C 6.3575 1.5391 3.1703
C 6.4436 3.2817 1.3589
C 7.6735 0.5774 0.5297
C 7.6690 -0.4354 -0.4003
N 6.3825 -0.7495 -0.6882
C 5.8600 -1.7729 -1.6063
C 7.0299 -2.5350 -2.2728
C 4.9509 -2.7168 -0.8089
C 4.9894 -1.1146 -2.6859
H -0.9460 -1.3691 -0.6031
H 1.6898 -1.5233 -2.2135
H 0.0514 -1.0145 -2.8344
H 0.6608 -3.4946 -3.3075
H -0.8622 -3.1856 -2.3705
H 1.8759 -3.9524 -1.2951
H 0.3080 -4.7563 -0.9208
H 1.6872 -2.6167 0.4200
H -0.0241 -3.0640 0.8091
H -0.5630 0.1544 1.9574
H 2.1657 -1.1236 2.5493
H 0.5360 -1.9416 2.6030
H 1.3381 -0.9909 4.9450
H -0.2477 -0.3979 4.3127
H 2.4315 1.0401 4.1728
H 0.8496 1.6891 4.7574
H 1.9996 1.6631 2.1090
H 0.4148 2.2917 2.4291
H -0.5838 1.5924 -1.0082
H 2.1666 2.6857 -0.3043
H 0.5832 3.1945 0.4085
H 1.4723 4.6736 -1.6052
H -0.1783 3.9428 -1.7990
H 2.4768 2.8911 -2.8676
H 0.9775 3.1788 -3.8340
H 1.9007 0.7939 -2.5736
H 0.1601 1.0586 -3.1014
H 3.9324 0.9218 1.8568
H 3.9956 2.1430 0.6449
H 3.9610 2.6514 2.3899
H 5.9752 0.5402 3.4695
H 6.0014 2.2910 3.9062
H 7.4697 1.5085 3.2282
H 6.1292 3.5508 0.3290
H 7.5556 3.2900 1.3961
H 6.0739 4.0596 2.0611
H 8.5486 1.0461 0.9608
H 8.5500 -0.8988 -0.8229
H 7.6702 -3.0209 -1.5038
H 7.6639 -1.8227 -2.8488
H 6.6716 -3.3165 -2.9725
H 5.5334 -3.1919 0.0161
H 4.5720 -3.5348 -1.4600
H 4.0734 -2.0902 -0.4293
H 5.5688 -0.3528 -3.2455
H 4.1055 -0.6279 -2.2094
H 4.6165 -1.8833 -3.3985
