39
 
N -0.3280 -1.0820 0.0030
C 0.9112 -0.5862 0.1106
N 0.8960 0.7662 0.0437
C 2.0233 1.6649 0.1416
C 3.3297 1.1700 0.3348
C 4.4061 2.0469 0.4858
C 4.1992 3.4260 0.4402
C 2.9171 3.9317 0.2280
C 1.8371 3.0617 0.0772
C -0.4072 1.1066 -0.1059
C -1.1590 -0.0413 -0.1351
Au -0.9301 -3.0938 0.0163
N -1.5321 -5.1056 0.0297
C -0.6397 -6.1132 0.2801
N 0.7240 -5.7880 0.6272
C 1.1339 -4.3891 0.7640
C 1.7425 -6.8055 0.9028
C -1.1099 -7.4502 0.1823
C -2.4363 -7.7035 -0.1624
C -3.3070 -6.6483 -0.3965
C -2.8328 -5.3444 -0.2884
H 1.7868 -1.2089 0.2221
H 3.5310 0.1104 0.3845
H 5.4011 1.6540 0.6480
H 5.0317 4.1035 0.5703
H 2.7539 5.0006 0.1892
H 0.8614 3.4965 -0.0767
H -0.8070 2.1066 -0.1833
H -2.2335 -0.1175 -0.2345
H 0.4156 -3.7757 1.3141
H 1.5610 -3.9904 -0.1692
H 1.9589 -4.3511 1.5061
H 1.4004 -7.8489 0.8415
H 2.1377 -6.6812 1.9324
H 2.5787 -6.7105 0.1788
H -0.5050 -8.3218 0.3496
H -2.7867 -8.7247 -0.2509
H -4.3356 -6.8410 -0.6721
H -3.4938 -4.5117 -0.4881
