64
 
P 0.9391 -0.0629 0.0483
C 0.5367 -0.4570 -1.8813
C 1.1870 0.4142 -3.0354
C 2.7207 0.3645 -3.0372
C 3.2029 -1.0649 -3.2830
C 2.5397 -2.0407 -2.3011
C 0.9943 -1.8734 -2.4019
C 0.2818 -1.2768 1.3523
C -1.2596 -1.4266 1.2605
C -1.6623 -2.2707 0.0429
C -1.0007 -3.6595 0.0795
C 0.5264 -3.6308 0.3864
C 0.8716 -2.7010 1.5309
C 0.2089 1.7015 0.2526
C 0.2878 2.3823 1.6557
C 1.6903 2.9279 1.9984
C 2.2445 3.8326 0.8801
C 2.1573 3.1252 -0.4705
C 0.6897 2.7771 -0.7189
Au 3.3991 -0.0629 0.0483
N 5.4991 -0.0629 0.0483
C 6.1419 -1.2563 -0.0512
C 7.5350 -1.3115 0.0327
F 8.1802 -2.5005 -0.0581
C 8.2537 -0.1300 0.2279
C 7.5734 1.0857 0.3357
C 6.1783 1.0983 0.2472
H -0.5470 -0.3498 -2.0622
H 0.8458 1.4212 -3.1972
H 0.8407 0.0313 -4.0260
H 3.1067 0.7392 -2.0774
H 3.1130 1.0123 -3.8515
H 4.3120 -1.1174 -3.2260
H 2.9125 -1.3563 -4.3198
H 2.9053 -1.8588 -1.2624
H 2.8436 -3.0677 -2.6055
H 0.3821 -2.6888 -2.0293
H 0.7317 -2.0292 -3.4763
H 0.5078 -0.7657 2.3123
H -1.7511 -0.4316 1.2304
H -1.6395 -1.9497 2.1677
H -1.3779 -1.7593 -0.8641
H -2.7682 -2.3724 -0.0196
H -1.1957 -4.1816 -0.8862
H -1.5029 -4.2366 0.8805
H 1.1848 -3.2723 -0.3807
H 0.8793 -4.6670 0.5571
H 1.9704 -2.6612 1.6827
H 0.4225 -3.1521 2.4455
H -0.8772 1.5505 0.0659
H -0.1040 1.7333 2.4637
H -0.3903 3.2726 1.6245
H 2.3731 2.0728 2.1542
H 1.6410 3.5287 2.9361
H 3.2957 4.1170 1.0989
H 1.6488 4.7724 0.8123
H 2.7870 2.2144 -0.4624
H 2.5239 3.8007 -1.2710
H 0.4687 2.4953 -1.7034
H 0.0742 3.6998 -0.6287
H 5.5653 -2.1626 -0.1827
H 9.3330 -0.1568 0.3052
H 8.1202 2.0053 0.4986
H 5.6349 2.0284 0.3491
