54
 
P 1.0436 0.0643 -0.0629
C 0.2351 -0.5258 -1.5669
C -1.1453 -0.6516 -1.7487
C -1.6493 -1.1552 -2.9537
C -0.7835 -1.5401 -3.9823
C 0.5930 -1.3868 -3.8258
C 1.0995 -0.8730 -2.6294
C 0.6161 -1.3882 0.9396
C 0.9858 -2.7003 0.6231
C 0.5804 -3.7623 1.4520
C -0.1832 -3.5212 2.6012
C -0.5374 -2.2168 2.9363
C -0.1416 -1.1582 2.1130
C 0.4727 1.7301 0.3567
C -0.9070 1.9962 0.5055
C -1.3582 3.2568 0.8992
C -0.4391 4.2687 1.1631
C 0.9336 4.0166 1.0307
C 1.3936 2.7480 0.6273
Au 3.5036 0.0643 -0.0629
N 5.6036 0.0643 -0.0629
C 6.4377 1.0714 0.2269
N 7.7275 0.6736 0.1185
C 8.9155 1.4755 0.3026
C 8.8239 2.8428 0.6373
C 9.9759 3.6258 0.7450
C 11.2324 3.0590 0.5280
C 11.3414 1.7038 0.2188
C 10.1957 0.9163 0.1084
C 7.6746 -0.6322 -0.2414
C 6.3582 -1.0022 -0.3543
H -1.8379 -0.3791 -0.9788
H -2.7162 -1.2588 -3.0840
H -1.1793 -1.9553 -4.9002
H 1.2659 -1.6742 -4.6270
H 2.1758 -0.7622 -2.5312
H 1.5729 -2.9003 -0.2598
H 0.8538 -4.7782 1.2058
H -0.4998 -4.3419 3.2356
H -1.1215 -2.0275 3.8322
H -0.4350 -0.1560 2.4036
H -1.6534 1.2402 0.3472
H -2.4217 3.4429 1.0135
H -0.7961 5.2417 1.4813
H 1.6356 4.8070 1.2550
H 2.4602 2.5381 0.5462
H 6.0965 2.0593 0.5004
H 7.8702 3.3217 0.8024
H 9.8917 4.6772 0.9863
H 12.1221 3.6693 0.5975
H 12.3141 1.2604 0.0519
H 10.3265 -0.1245 -0.1444
H 8.5145 -1.2852 -0.4244
H 5.9729 -1.9744 -0.6312
