23
 
P 1.0221 0.3044 0.3373
F -0.5191 -0.0860 0.8437
F 0.9562 1.8564 0.9628
F 0.6625 0.0927 -1.2922
Cu 3.3876 0.2986 0.1279
P 5.7203 -0.2372 0.0260
O 6.6681 -1.6177 -0.2710
C 8.0362 -1.4016 -0.2326
C 8.4139 0.0359 0.0770
C 9.9516 0.1125 0.0866
C 7.7701 0.9329 -1.0304
O 6.3574 0.7343 -1.2350
O 6.3697 0.1254 1.5759
C 7.7826 0.3943 1.4616
H 8.4274 -1.6974 -1.2266
H 8.4392 -2.0822 0.5443
H 10.3517 -0.2141 -0.9012
H 10.3582 -0.5921 0.8486
H 10.3192 1.1315 0.3060
H 8.2672 0.6929 -1.9953
H 8.0019 2.0027 -0.8117
H 8.2932 -0.2189 2.2370
H 8.0142 1.4602 1.7007
