41
 
P 0.9830 -0.0837 -0.0520
C 0.2422 1.4347 0.6996
C -1.2748 1.5353 0.7108
C 0.8076 1.5965 2.1202
C 0.4323 -0.1534 -1.8029
C 0.9180 1.0136 -2.6537
C 0.8703 -1.4879 -2.4220
C 0.5017 -1.4256 1.0798
Cu 3.4430 -0.0837 -0.0520
N 5.5430 -0.0837 -0.0520
C 6.1671 -1.0857 0.6143
C 7.5659 -1.0830 0.7580
O 8.2258 -2.0393 1.4606
C 7.6252 -3.1084 2.0949
C 8.2923 -0.0347 0.1815
C 7.6280 0.9810 -0.5119
C 6.2349 0.9423 -0.6133
H 0.6315 2.3008 0.1199
H -1.7257 0.6816 1.2498
H -1.6630 1.6046 -0.3244
H -1.5606 2.4772 1.2352
H 0.4435 0.7943 2.7921
H 0.5020 2.5709 2.5557
H 1.9214 1.5701 2.1008
H -0.6791 -0.1380 -1.7890
H 2.0188 0.9754 -2.7883
H 0.6227 1.9779 -2.1975
H 0.4330 0.9526 -3.6544
H 1.9783 -1.5757 -2.4272
H 0.4968 -1.5758 -3.4651
H 0.4502 -2.3415 -1.8458
H -0.6092 -1.4763 1.1053
H 0.9008 -1.2970 2.1003
H 0.8656 -2.3869 0.6615
H 5.5578 -1.8625 1.0533
H 8.3906 -3.6861 2.6502
H 7.1421 -3.7717 1.3460
H 6.8668 -2.7465 2.8235
H 9.3698 0.0018 0.2839
H 8.1855 1.8007 -0.9466
H 5.7035 1.7383 -1.1175
