23
 
P 1.0505 -0.0531 0.0681
C 0.1375 -1.5493 -0.4131
C 0.5767 -0.1577 1.8177
C 0.6637 1.2050 -1.1101
C -0.6740 1.5767 -1.3379
C -0.9716 2.5893 -2.2496
C 0.0666 3.2322 -2.9278
C 1.4068 2.8724 -2.6791
C 1.7189 1.8502 -1.7559
Cu 3.5105 -0.0531 0.0681
C 5.6605 -0.0531 0.0681
O 6.8785 -0.0531 0.0681
H -0.9586 -1.4473 -0.3717
H 0.4914 -2.3998 0.2128
H 0.4566 -1.7889 -1.4538
H -0.5361 -0.1295 1.8742
H 0.9374 0.7697 2.3138
H 0.9699 -1.0495 2.3343
H -1.4858 1.0924 -0.8056
H -2.0044 2.8760 -2.4273
H -0.1757 4.0143 -3.6392
H 2.1911 3.3959 -3.2057
H 2.7620 1.5290 -1.5032
