64
 
P 0.9431 0.0537 -0.0623
C 0.2582 -1.6025 -0.3822
C -1.1069 -1.8906 -0.3977
C -1.5460 -3.2130 -0.5542
C -0.6287 -4.2742 -0.7068
O -1.0264 -5.5751 -0.7661
C -2.3269 -6.0086 -0.5845
C 0.7368 -3.9779 -0.7741
C 1.1769 -2.6552 -0.6185
C 0.3393 0.0971 1.6548
C 0.7468 -0.7744 2.6726
C 0.1549 -0.6934 3.9448
C -0.8578 0.2517 4.2197
O -1.4946 0.3111 5.4210
C -1.2910 -0.5711 6.4643
C -1.2307 1.1482 3.2156
C -0.6336 1.0764 1.9536
C 0.5906 1.3444 -1.2810
C -0.7350 1.6938 -1.6176
C -0.9969 2.7117 -2.5358
C 0.0546 3.4165 -3.1436
O -0.1921 4.4015 -4.0600
C -1.4469 4.7158 -4.5704
C 1.3864 3.0841 -2.7882
C 1.6618 2.0449 -1.8547
Cu 3.4031 0.0537 -0.0623
C 5.5531 0.0537 -0.0623
N 6.2517 -0.8599 0.4873
C 5.6878 -1.9695 1.2132
C 7.6688 -0.6181 0.3069
C 7.7082 0.5224 -0.7261
N 6.3586 1.0174 -0.6904
C 5.9287 2.3149 -1.1489
H -1.8311 -1.1049 -0.2617
H -2.6068 -3.4065 -0.5293
H -2.3703 -7.1166 -0.6209
H -2.9733 -5.5988 -1.3868
H -2.7077 -5.6808 0.4096
H 1.4612 -4.7766 -0.9166
H 2.2455 -2.4662 -0.6597
H 1.5074 -1.5187 2.4929
H 0.4773 -1.3829 4.7102
H -1.9595 -0.3189 7.3130
H -0.2384 -0.5080 6.8091
H -1.5194 -1.6093 6.1357
H -2.0006 1.8920 3.4021
H -0.9632 1.7790 1.1990
H -1.5876 1.1961 -1.1753
H -2.0300 2.9481 -2.7663
H -1.3809 5.5559 -5.2936
H -2.1377 5.0242 -3.7560
H -1.8744 3.8350 -5.1005
H 2.2016 3.6349 -3.2416
H 2.6937 1.7554 -1.5371
H 4.5653 -1.9076 1.2033
H 6.0626 -1.9589 2.2597
H 6.0181 -2.9156 0.7319
H 8.2271 -1.5025 -0.0669
H 8.0818 -0.2807 1.2836
H 7.8691 0.1052 -1.7474
H 8.4831 1.2814 -0.4915
H 6.7913 2.8770 -1.5691
H 5.5454 2.8869 -0.2761
H 5.1336 2.2247 -1.9137
