93
 
P 1.0562 -0.0675 -0.0477
C 0.2091 1.2353 -0.9944
C -1.1663 1.2607 -1.2376
C -1.7225 2.2287 -2.0731
C -0.9213 3.2145 -2.6786
O -1.4456 4.1615 -3.5025
C -2.7740 4.2210 -3.8809
C 0.4555 3.2111 -2.4261
C 1.0172 2.2255 -1.5998
C 0.6824 -1.6865 -0.7666
C 1.7285 -2.5425 -1.1413
C 1.4101 -3.8132 -1.6974
C 0.0685 -4.2287 -1.8627
O -0.1929 -5.4437 -2.4268
C -1.3563 -6.1854 -2.2874
C -0.9580 -3.3669 -1.4471
C -0.6512 -2.1206 -0.9039
C 0.6494 0.5376 1.6164
C -0.6926 0.5981 2.0451
C -1.0172 1.0410 3.3317
C -0.0037 1.4190 4.2301
O -0.2774 1.9154 5.4680
C -1.5391 2.2210 5.9459
C 1.3352 1.2887 3.8295
C 1.6607 0.8493 2.5349
Cu 3.5162 -0.0675 -0.0477
P 5.9762 -0.0675 -0.0477
C 6.6346 -0.7829 -1.6880
C 6.1674 0.1263 -2.8621
C 8.1607 -0.9342 -1.8232
C 5.9512 -2.1327 -1.9704
C 6.5121 1.7270 0.2910
C 5.9924 2.1841 1.6632
C 8.0554 1.8583 0.3432
C 5.9735 2.7337 -0.7449
C 6.4563 -1.3157 1.1812
C 5.5190 -1.9315 2.0107
C 5.9416 -2.6840 3.1231
C 7.3231 -2.8528 3.4382
N 7.7799 -3.5190 4.6533
C 6.8700 -4.0457 5.6654
C 9.1913 -3.6348 5.0291
C 8.2410 -2.2716 2.5367
C 7.8144 -1.5109 1.4581
H -1.8274 0.5311 -0.8232
H -2.7860 2.1903 -2.2508
H -2.9475 5.1055 -4.5258
H -3.4217 4.3111 -2.9826
H -3.0477 3.3050 -4.4496
H 1.0938 3.9610 -2.8846
H 2.0917 2.2344 -1.4461
H 2.7736 -2.1859 -0.9741
H 2.1954 -4.4949 -1.9978
H -1.3561 -7.0214 -3.0192
H -2.2722 -5.5897 -2.4793
H -1.3919 -6.6166 -1.2648
H -2.0034 -3.6345 -1.5462
H -1.4793 -1.5131 -0.5918
H -1.5025 0.2996 1.3965
H -2.0606 1.0898 3.6192
H -1.4591 2.6648 6.9601
H -2.1593 1.3031 6.0076
H -2.0329 2.9659 5.2821
H 2.1285 1.5398 4.5222
H 2.7002 0.7462 2.2523
H 6.7196 1.0703 -2.9220
H 5.0725 0.3276 -2.8144
H 6.3785 -0.3367 -3.8506
H 8.6784 0.0357 -1.8063
H 8.4196 -1.3701 -2.8100
H 8.5877 -1.6163 -1.0808
H 4.8468 -1.9998 -1.9977
H 6.2105 -2.9092 -1.2296
H 6.2520 -2.5035 -2.9796
H 6.4675 1.6118 2.4873
H 4.8893 2.0978 1.7193
H 6.2632 3.2563 1.8261
H 8.4971 1.1550 1.0749
H 8.3707 2.8759 0.6561
H 8.5248 1.7119 -0.6392
H 4.8730 2.6485 -0.8453
H 6.4521 2.6489 -1.7240
H 6.2297 3.7738 -0.4455
H 4.4605 -1.7724 1.8525
H 5.1494 -3.0715 3.7338
H 5.8020 -3.9403 5.4431
H 7.0394 -3.5108 6.6258
H 7.0647 -5.1272 5.8197
H 9.9207 -3.2221 4.3226
H 9.4620 -4.7022 5.1656
H 9.3666 -3.0948 5.9853
H 9.3076 -2.3199 2.6460
H 8.5875 -1.0247 0.8953
