64
 
P 1.0533 0.0580 -0.0616
C 0.3138 1.6281 -0.5459
C -1.0483 1.8773 -0.7267
C -1.4657 3.1297 -1.2211
C -2.8992 3.3670 -1.5656
C -0.5271 4.1496 -1.4528
C 0.8217 3.9268 -1.1949
C 1.2390 2.6716 -0.7568
C 0.6765 -0.9364 -1.5377
C 1.7270 -1.4882 -2.2756
C 1.4738 -2.2962 -3.3977
C 2.6118 -2.7916 -4.2353
C 0.1523 -2.6074 -3.7524
C -0.9070 -2.1138 -2.9894
C -0.6516 -1.2786 -1.8910
C 0.6258 -0.4643 1.6035
C 1.6554 -0.7641 2.5050
C 1.3273 -1.3847 3.7399
C 2.3974 -1.8479 4.6809
C -0.0195 -1.6430 4.0690
C -1.0371 -1.3052 3.1767
C -0.7170 -0.7307 1.9422
Cu 3.5133 0.0580 -0.0616
N 5.6133 0.0580 -0.0616
C 5.6763 -1.3486 -0.5158
C 6.2605 0.1195 1.2519
C 6.1675 0.7845 -1.1959
C 7.4434 1.3990 -1.1662
C 7.9005 2.1638 -2.2469
C 7.1289 2.2948 -3.3992
C 5.9093 1.6234 -3.4967
C 5.4195 0.8836 -2.4030
H -1.7739 1.1067 -0.5311
H -3.5196 2.4782 -1.3296
H -2.9525 3.5401 -2.6621
H -3.3012 4.2533 -1.0339
H -0.8371 5.1138 -1.8402
H 1.5477 4.7155 -1.3636
H 2.2999 2.5128 -0.5912
H 2.7452 -1.2845 -1.9776
H 3.5895 -2.4988 -3.7972
H 2.5264 -2.3082 -5.2303
H 2.5890 -3.8949 -4.3579
H -0.0551 -3.2370 -4.6128
H -1.9262 -2.3780 -3.2564
H -1.4993 -0.9300 -1.3201
H 2.7020 -0.5635 2.1817
H 3.4037 -1.6063 4.2855
H 2.3255 -2.9546 4.7763
H 2.2763 -1.3973 5.6885
H -0.2824 -2.1331 5.0040
H -2.0707 -1.5307 3.4261
H -1.5188 -0.5400 1.2406
H 5.4864 -1.4992 -1.5959
H 6.6818 -1.8193 -0.4263
H 4.7366 -1.8721 -0.2261
H 5.5078 -0.0099 2.0523
H 6.7852 1.0828 1.4077
H 7.0438 -0.6664 1.3931
H 8.0956 1.3170 -0.3120
H 8.8567 2.6680 -2.1869
H 7.4841 2.9131 -4.2178
H 5.3420 1.7022 -4.4179
H 4.4521 0.3823 -2.4822
