62
 
P 0.9794 -0.0954 -0.0216
C 0.2259 1.4933 0.5478
C -1.2921 1.5790 0.5425
C 0.7882 1.8279 1.9397
C 0.4320 -0.3612 -1.7531
C 0.9213 0.7031 -2.7277
C 0.8738 -1.7561 -2.2130
C 0.5173 -1.2898 1.2718
Cu 3.4394 -0.0954 -0.0216
P 5.8994 -0.0954 -0.0216
C 6.6056 -1.7562 0.4271
C 6.1472 -2.8050 -0.6161
C 8.1297 -1.7916 0.5478
C 5.9512 -2.1733 1.7638
C 6.3461 0.2842 -1.7386
C 5.3463 0.4971 -2.6957
C 5.6943 0.8432 -4.0142
C 7.0391 0.9693 -4.3831
C 8.0395 0.7769 -3.4315
C 7.6969 0.4504 -2.1147
C 6.2789 1.1133 1.2579
C 5.2280 1.7357 1.9351
C 5.5043 2.7829 2.8338
C 6.8257 3.1925 3.0651
C 7.8776 2.5563 2.4049
C 7.6077 1.5256 1.4981
H 0.6088 2.2868 -0.1308
H -1.7394 0.7997 1.1873
H -1.6753 1.5047 -0.4942
H -1.5886 2.5792 0.9362
H 0.4294 1.1128 2.7063
H 0.4832 2.8476 2.2547
H 1.8999 1.8021 1.9226
H -0.6793 -0.3452 -1.7465
H 2.0221 0.6593 -2.8400
H 0.6146 1.7128 -2.3938
H 0.4548 0.5203 -3.7217
H 1.9823 -1.8406 -2.2076
H 0.4990 -1.9656 -3.2381
H 0.4546 -2.5362 -1.5400
H -0.5926 -1.3432 1.3164
H 0.9266 -1.0313 2.2635
H 0.8865 -2.2931 0.9746
H 6.5875 -2.6224 -1.6172
H 5.0379 -2.8076 -0.7183
H 6.4448 -3.8297 -0.2948
H 8.6061 -1.5560 -0.4189
H 8.4666 -2.8124 0.8278
H 8.4816 -1.1002 1.3340
H 4.8409 -2.2007 1.6563
H 6.1945 -1.4691 2.5844
H 6.2726 -3.1944 2.0662
H 4.3042 0.4079 -2.4059
H 4.9263 1.0188 -4.7556
H 7.3092 1.2274 -5.4015
H 9.0811 0.8913 -3.7136
H 8.4982 0.3460 -1.4011
H 4.2036 1.4092 1.7278
H 4.6982 3.2930 3.3422
H 7.0378 4.0087 3.7475
H 8.8994 2.8795 2.5790
H 8.4412 1.0851 0.9696
