43
 
P 1.0863 -0.0076 -0.0500
C 0.1550 -1.4004 0.6560
C 0.6333 1.1340 1.2879
C 0.6226 0.1029 -1.7627
C -0.7323 0.2525 -2.1127
C -1.1007 0.3889 -3.4523
C -0.1172 0.3765 -4.4438
C 1.2383 0.2398 -4.0921
C 1.6182 0.1078 -2.7405
Cu 3.5463 -0.0076 -0.0500
P 6.0063 -0.0076 -0.0500
C 6.9254 1.3672 0.7130
C 6.4558 -1.2338 1.2116
C 6.5557 -0.1641 -1.7945
C 6.0346 0.9940 -2.6442
C 8.0979 -0.2139 -1.8376
C 6.0143 -1.4991 -2.3417
H -0.9397 -1.2824 0.6210
H 0.5117 -1.5789 1.6957
H 0.4565 -2.3034 0.0760
H -0.4794 1.1978 1.3206
H 0.9936 2.1452 0.9988
H 1.0338 0.8475 2.2748
H -1.5032 0.2805 -1.3506
H -2.1459 0.5106 -3.7201
H -0.4112 0.4821 -5.4825
H 1.9847 0.2455 -4.8733
H 2.6735 0.0187 -2.4128
H 6.5487 1.5245 1.7465
H 6.6350 2.2833 0.1463
H 8.0212 1.2612 0.7016
H 6.0618 -1.0275 2.2186
H 7.5671 -1.3215 1.2241
H 6.0834 -2.2180 0.8460
H 6.4214 1.9622 -2.2670
H 4.9241 1.0103 -2.6239
H 6.3700 0.8694 -3.6976
H 8.5443 0.7275 -1.4584
H 8.4631 -0.3625 -2.8756
H 8.4827 -1.0543 -1.2172
H 4.9039 -1.5204 -2.3126
H 6.3923 -2.3546 -1.7372
H 6.3464 -1.6617 -3.3901
