66
 
P 0.9758 0.0883 0.0401
C 0.1873 -0.4431 -1.5863
C -1.3298 -0.5275 -1.6167
C 0.6679 0.3931 -2.7983
C 0.4413 -1.1971 1.2530
C 0.9506 -2.6022 0.9639
C 0.8318 -0.7749 2.6808
C 0.3327 1.7310 0.5379
Cu 3.4358 0.0883 0.0401
C 5.5858 0.0883 0.0401
N 6.3571 -1.0164 0.0403
C 5.8206 -2.3760 0.0313
C 6.2770 -3.1931 1.2440
C 5.8629 -2.5848 2.5859
C 6.3783 -3.4661 3.7220
C 7.6358 -0.5589 0.0312
C 7.6223 0.8196 0.0248
C 8.8213 1.5596 0.0331
C 10.0380 0.8620 0.0403
C 10.0526 -0.5433 0.0332
C 8.8479 -1.2718 0.0250
N 6.3380 1.2664 0.0190
C 5.9467 2.7389 -0.0104
C 5.3968 3.2271 1.3253
C 6.2105 2.9256 2.4111
C 5.7766 3.1084 3.7096
C 4.5439 3.6988 3.9649
C 3.7666 4.1725 2.9006
C 4.1757 3.9295 1.5659
H 0.5847 -1.4598 -1.8003
H -1.7729 0.4574 -1.3785
H -1.6871 -1.3164 -0.9299
H -1.6564 -0.8190 -2.6442
H 0.2861 1.4331 -2.7724
H 0.2945 -0.0737 -3.7431
H 1.7758 0.4023 -2.8941
H -0.6696 -1.2177 1.2178
H 2.0493 -2.6618 1.1026
H 0.6727 -2.9202 -0.0575
H 0.4609 -3.3059 1.6756
H 1.9338 -0.6831 2.7825
H 0.4588 -1.5124 3.4231
H 0.3684 0.1964 2.9540
H -0.7765 1.6516 0.6120
H 0.6035 2.5833 -0.1053
H 0.6866 1.9469 1.5705
H 6.1571 -2.8904 -0.8935
H 4.7009 -2.3258 0.0156
H 7.3768 -3.2982 1.2302
H 5.8386 -4.2102 1.1577
H 4.7550 -2.5113 2.6445
H 6.2961 -1.5664 2.6970
H 5.9533 -4.4893 3.6354
H 6.0884 -3.0376 4.7026
H 7.4874 -3.5361 3.6772
H 8.8544 2.6385 0.0411
H 10.9731 1.4107 0.0485
H 11.0042 -1.0617 0.0345
H 8.8945 -2.3485 0.0137
H 5.3004 2.9815 -0.8784
H 6.8565 3.3634 -0.1547
H 7.1845 2.4985 2.2399
H 6.4111 2.7621 4.5083
H 4.2150 3.7984 4.9920
H 2.8402 4.6935 3.1332
H 3.5301 4.2801 0.7644
