60
 
P 0.9975 0.0720 0.0882
Cl -0.6766 1.2561 -0.1189
Cl 0.7815 -1.1990 -1.5420
Cl 0.8731 -0.2865 2.1593
Cu 3.3289 0.0839 0.0169
P 5.7513 0.0627 0.1744
C 6.8407 0.7002 1.6922
C 6.8143 2.2383 2.1700
C 5.5247 2.7146 2.8982
C 5.3209 1.8971 4.1548
C 5.3047 0.4040 3.7877
C 6.6421 -0.0161 3.0813
C 6.1858 -1.8161 0.0309
C 5.3083 -2.4401 1.0814
C 3.8635 -2.5903 0.4952
C 3.8467 -3.7297 -0.4609
C 4.8004 -3.3853 -1.6149
C 6.1806 -2.9445 -1.1012
C 6.1785 1.2537 -1.1480
C 5.2581 2.2852 -1.4942
C 3.9293 2.5369 -0.8332
C 5.5801 3.2019 -2.4943
C 6.7754 3.1311 -3.1877
C 7.0623 4.1274 -4.2624
C 7.6897 2.1320 -2.8801
C 7.4254 1.1884 -1.8730
C 8.5187 0.1614 -1.6591
H 7.8603 0.4529 1.3721
H 7.0771 3.0342 1.4609
H 7.6412 2.3243 2.9284
H 4.6182 2.6394 2.2648
H 5.6090 3.7866 3.2067
H 4.3672 2.2210 4.6357
H 6.1571 2.1166 4.8619
H 4.4277 0.2343 3.1277
H 5.1597 -0.1653 4.7311
H 6.8495 -1.0980 3.0491
H 7.4691 0.2779 3.7668
H 7.2704 -1.7699 0.2227
H 5.3699 -1.7935 1.9199
H 5.7152 -3.4041 1.4481
H 3.5770 -1.7961 -0.1558
H 3.0489 -2.7212 1.2260
H 2.8159 -3.8689 -0.8585
H 4.1342 -4.6223 0.1328
H 4.4060 -2.5255 -2.1916
H 4.8656 -4.2811 -2.2723
H 6.8611 -2.7642 -1.9548
H 6.6081 -3.8636 -0.6082
H 3.6959 1.9233 0.0548
H 3.1081 2.4816 -1.5936
H 3.9690 3.5591 -0.4210
H 4.8839 3.9964 -2.7289
H 6.2342 4.8631 -4.3481
H 7.1509 3.5904 -5.2276
H 7.9994 4.6775 -4.0382
H 8.6206 2.0946 -3.4356
H 9.4119 0.3618 -2.2986
H 8.1761 -0.8464 -1.9583
H 8.8956 0.1868 -0.6211
