82
 
P 0.9437 0.0363 0.0743
C 0.1454 0.0897 -1.5486
C -1.2401 0.1018 -1.7529
C -1.7510 0.0004 -3.0551
C -0.8869 -0.0824 -4.1553
Cl -1.5325 -0.2859 -5.7745
C 0.4940 -0.0256 -3.9610
C 1.0072 0.0617 -2.6651
C 0.4284 -1.7289 0.4652
C -0.3919 -2.5468 -0.3636
C -0.7756 -3.8383 0.0155
C -0.3569 -4.3732 1.2267
Cl -0.8191 -6.0141 1.6609
C 0.4230 -3.5970 2.0833
C 0.8020 -2.2890 1.7157
C 0.3419 1.4494 1.1043
C -0.5285 2.4631 0.6356
C -0.9917 3.4734 1.5032
C -0.6140 3.4832 2.8481
Cl -1.1986 4.7435 3.9289
C 0.2269 2.4821 3.3319
C 0.7038 1.4810 2.4702
Cu 3.4037 0.0363 0.0743
C 5.5537 0.0363 0.0743
N 6.3252 1.2220 0.1105
C 5.9821 2.6985 0.0590
C 4.6252 3.1155 -0.0023
C 3.6165 2.2036 0.1076
C 4.1581 4.3913 -0.0302
C 5.0388 5.4161 0.0431
C 4.4643 6.7839 0.0723
C 6.4109 5.1377 0.1254
C 6.9016 3.8007 0.1253
C 8.3784 3.6414 0.2418
C 7.5805 0.7573 0.0933
C 7.6060 -0.5768 0.0324
N 6.3669 -1.1148 0.0085
C 6.0492 -2.6058 0.0192
C 6.9718 -3.7132 0.0912
C 8.4597 -3.6838 0.1380
C 6.4832 -5.0542 0.1205
C 5.1207 -5.3495 0.0736
C 4.5480 -6.7127 0.1002
C 4.2378 -4.3390 -0.0167
C 4.7109 -3.0645 -0.0441
C 3.7423 -2.1723 -0.1756
H -1.9127 0.1350 -0.9091
H -2.8195 -0.0426 -3.2077
H 1.1695 -0.0784 -4.8091
H 2.0853 0.0700 -2.5367
H -0.7767 -2.2369 -1.3106
H -1.4049 -4.4279 -0.6417
H 0.7294 -4.0141 3.0366
H 1.3881 -1.7230 2.4257
H -0.8731 2.4863 -0.3859
H -1.6553 4.2495 1.1382
H 0.5056 2.4792 4.3805
H 1.3494 0.7202 2.8847
H 4.1851 1.7932 1.0068
H 3.3134 1.8204 -0.9045
H 2.7906 2.1870 0.8029
H 3.0811 4.5737 -0.0649
H 3.3482 6.7594 0.0096
H 4.8439 7.3385 -0.8014
H 4.7311 7.2528 1.0375
H 7.0942 5.9677 0.2060
H 8.9166 4.6023 0.3156
H 8.7471 3.1522 -0.6834
H 8.6000 3.0787 1.1770
H 8.5102 1.2650 0.0982
H 8.5699 -0.9712 0.0129
H 8.9996 -2.7812 0.1052
H 8.8292 -4.2218 -0.7549
H 8.7854 -4.1464 1.0873
H 7.1731 -5.8797 0.1798
H 5.3518 -7.4630 0.1444
H 3.9362 -6.8473 -0.8204
H 3.8802 -6.7958 0.9878
H 3.1611 -4.5357 -0.0644
H 2.7163 -2.2254 -0.5007
H 4.1249 -1.6818 -1.1255
H 3.7398 -1.7006 0.8280
