44
 
P 1.2750 0.0000 0.0000
N 0.3765 0.7835 -1.3104
C -1.0632 0.7053 -1.2252
C -1.4611 -0.0329 0.0386
C -2.9900 -0.0678 0.0981
C -0.8658 -1.5009 -0.0609
N 0.6074 -1.5871 -0.2694
N 0.6015 0.9939 1.2607
C -0.8711 0.7664 1.2779
Cu 3.7350 0.0003 -0.0005
C 5.8850 0.0006 -0.0009
N 6.6369 -0.0148 1.1112
C 6.1584 -0.0095 2.4848
C 7.9168 -0.0298 0.6982
C 7.9206 -0.0271 -0.6828
N 6.6381 -0.0063 -1.1188
C 6.1588 0.0295 -2.4831
C 7.0614 0.0398 -3.5653
C 6.5943 0.1218 -4.8801
C 5.2242 0.1891 -5.1371
C 4.3173 0.1659 -4.0809
C 4.7766 0.0872 -2.7685
H 0.7202 0.3986 -2.2217
H -1.4601 0.1951 -2.1334
H -1.4570 1.7452 -1.2305
H -3.3927 -0.5763 -0.8063
H -3.3900 0.9710 0.1083
H -3.3346 -0.6014 1.0034
H -1.3589 -2.0392 -0.9024
H -1.1245 -2.0513 0.8665
H 0.8520 -1.8990 -1.2370
H 0.8476 1.9929 1.0770
H -1.3661 1.7619 1.3415
H -1.1330 0.2186 2.2065
H 5.0454 0.0053 2.5026
H 6.5410 0.8925 3.0079
H 6.5244 -0.9173 3.0092
H 8.7827 -0.0402 1.3477
H 8.8053 -0.0339 -1.3031
H 8.1284 -0.0030 -3.4075
H 7.2983 0.1411 -5.7005
H 4.8633 0.2628 -6.1534
H 3.2530 0.2197 -4.2725
H 4.0322 0.0950 -2.0122
