34
 
P 1.2750 0.0000 0.0000
O 0.4339 1.4822 -0.2807
C -0.9609 1.3718 -0.2875
C -1.4015 -0.0483 0.0104
C -2.9321 -0.1101 0.0225
C -0.7784 -0.9509 -1.1220
O 0.6233 -0.7655 -1.3630
O 0.6292 -0.2035 1.5528
C -0.7814 -0.4227 1.4117
Cu 3.7350 0.0003 -0.0005
N 5.8350 0.0006 -0.0009
C 6.5048 0.6429 -0.9870
O 5.8146 1.3314 -1.9254
C 4.4299 1.3494 -1.9929
C 7.9073 0.5667 -1.0283
C 8.5823 -0.1903 -0.0606
C 7.8594 -0.8493 0.9347
C 6.4701 -0.7389 0.9462
H -1.3301 1.7003 -1.2845
H -1.3577 2.0756 0.4765
H -3.3314 0.2144 -0.9644
H -3.3320 0.5882 0.7917
H -3.2841 -1.1356 0.2413
H -1.2904 -0.6966 -2.0759
H -0.9864 -2.0192 -0.9034
H -1.2756 0.2126 2.1799
H -1.0146 -1.4811 1.6481
H 4.1305 2.0216 -2.8197
H 3.9852 1.7389 -1.0671
H 4.0268 0.3354 -2.1626
H 8.4714 1.0665 -1.8045
H 9.6616 -0.2780 -0.0840
H 8.3659 -1.4487 1.6817
H 5.8879 -1.2565 1.6978
