78
 
P 1.0770 -0.0572 0.0282
C 0.2174 1.5369 -0.5965
C 0.7127 2.5646 0.4366
C 2.2222 2.8338 0.2091
C 2.4510 3.4690 -1.1718
C 1.9560 2.5756 -2.2786
C 0.4868 2.2500 -2.0067
C 0.6421 -1.2040 -1.4204
C 1.1676 -0.8881 -2.8408
C 2.6717 -1.1002 -2.9716
C 2.9701 -2.5829 -2.7629
C 2.5114 -2.9903 -1.3580
C 1.0086 -2.6884 -1.1472
C 0.5386 -0.4219 1.9656
C -0.8680 -0.6173 2.2969
C -1.9697 -0.5679 1.3237
C -1.3811 -0.8670 3.6034
C -0.5898 -0.9305 4.7168
C -1.2022 -1.1325 6.1043
C 0.7668 -0.7819 4.5176
C 1.3648 -0.5359 3.2123
C 2.8715 -0.4236 3.3425
Cu 3.5370 -0.0572 0.0282
N 5.6370 -0.0572 0.0282
C 6.2630 -1.1495 0.5455
C 7.6594 -1.2490 0.5195
C 8.4188 -0.1917 0.0189
C 7.7791 0.9574 -0.4478
C 8.5159 2.0676 -0.8845
C 7.8655 3.2402 -1.2704
C 6.4716 3.3424 -1.1931
C 5.8311 4.6663 -1.4843
O 4.9020 5.0617 -0.7998
C 6.3228 5.5981 -2.5509
C 5.7393 2.1949 -0.7837
C 6.3697 1.0031 -0.4412
H -0.8761 1.4135 -0.5412
H 0.5437 2.1684 1.4571
H 0.1478 3.5163 0.3691
H 2.7789 1.8914 0.2369
H 2.6421 3.4499 1.0251
H 3.4817 3.5781 -1.4372
H 1.9997 4.4815 -1.2040
H 2.5785 1.6580 -2.3290
H 2.1071 3.1238 -3.2434
H 0.0311 1.7977 -2.8978
H -0.0293 3.2377 -2.0064
H -0.4668 -1.1621 -1.4656
H 0.9307 0.0915 -3.1843
H 0.6492 -1.5541 -3.5706
H 3.2143 -0.4707 -2.2248
H 2.9932 -0.8054 -3.9935
H 4.0572 -2.7717 -2.8866
H 2.4389 -3.1875 -3.5381
H 3.1164 -2.4258 -0.6224
H 2.7037 -4.0777 -1.2265
H 0.6776 -2.9932 -0.1332
H 0.4432 -3.3210 -1.8728
H -1.6108 -0.4021 0.3172
H -2.6433 0.2596 1.6434
H -2.5215 -1.5329 1.3665
H -2.4488 -1.0032 3.7668
H -2.3104 -1.2633 6.0723
H -1.0149 -0.2411 6.7445
H -0.7846 -2.0255 6.6170
H 1.3644 -0.8427 5.4311
H 3.4501 0.2281 4.0460
H 2.8934 0.2350 4.2555
H 3.2588 -1.4361 3.5981
H 5.6727 -1.9792 0.9105
H 8.1528 -2.1415 0.8808
H 9.5002 -0.2559 0.0234
H 9.5972 2.0478 -0.8905
H 8.4631 4.0921 -1.5625
H 7.2112 5.2059 -3.0802
H 6.5531 6.5832 -2.0973
H 5.5161 5.7346 -3.3062
H 4.6904 2.1728 -0.6766
