58
 
P 1.0118 0.0401 0.0909
C 0.2322 0.9010 -1.3788
C -1.2902 0.8110 -1.3715
C 0.6755 2.4010 -1.3959
C 0.7806 0.3075 -2.6877
C 0.6128 -1.7048 -0.2643
C 1.4359 -2.5226 -1.0465
C 1.1267 -3.8842 -1.2139
C 0.0077 -4.4449 -0.5871
C -0.8031 -3.6507 0.2189
C -0.5011 -2.2946 0.3859
C 0.5181 0.8238 1.6397
C -0.8455 0.8850 1.9912
C -1.2581 1.5015 3.1688
C -0.3107 2.0454 4.0313
C 1.0551 1.9472 3.7219
C 1.4774 1.3325 2.5242
Cu 3.4718 0.0401 0.0909
P 5.9318 0.0401 0.0909
N 6.8067 1.5680 0.2911
C 8.2479 1.4720 0.2487
C 8.6580 0.0151 0.1291
C 10.1836 -0.0499 0.1130
C 8.0496 -0.7375 1.3934
N 6.5779 -0.5605 1.5949
N 6.6213 -0.4418 -1.4273
C 8.0879 -0.5498 -1.2430
H -1.7149 1.3479 -0.5082
H -1.5983 -0.2530 -1.3652
H -1.7130 1.3090 -2.2679
H 0.3103 2.9958 -0.5322
H 0.3135 2.9115 -2.3190
H 1.7874 2.4919 -1.4112
H 0.5527 -0.7667 -2.7754
H 1.8827 0.4574 -2.7562
H 0.3178 0.8170 -3.5617
H 2.3186 -2.1072 -1.5111
H 1.7613 -4.5143 -1.8200
H -0.2252 -5.4970 -0.7117
H -1.6590 -4.0907 0.7231
H -1.1456 -1.7244 1.0383
H -1.6105 0.4527 1.3709
H -2.3153 1.5525 3.4085
H -0.6423 2.5290 4.9429
H 1.7768 2.3523 4.4171
H 2.5397 1.2377 2.2725
H 6.4739 2.0420 1.1645
H 8.6683 1.9345 1.1710
H 8.6029 2.0696 -0.6186
H 10.5897 0.3977 1.0456
H 10.5709 0.5407 -0.7483
H 10.5264 -1.0975 0.0207
H 8.5580 -0.3778 2.3148
H 8.2764 -1.8204 1.2985
H 6.3261 0.0534 2.4012
H 6.3535 0.2529 -2.1611
H 8.5710 -0.0194 -2.0951
H 8.3685 -1.6194 -1.3340
