108
 
P 0.9395 0.0729 -0.0320
C 0.1773 -1.4049 -1.1540
C -1.2148 -1.7856 -1.1694
C -1.6906 -2.9603 -1.8386
C -0.8150 -3.8393 -2.4720
C 0.4886 -3.4794 -2.5642
C 0.9185 -2.2899 -2.0169
C 0.4651 0.0714 1.7245
C 1.2622 0.5949 2.7596
C 0.8182 0.5502 4.0879
C -0.4287 0.0029 4.3977
C -1.2389 -0.4919 3.3805
C -0.7904 -0.4632 2.0618
C -0.0279 1.5916 -0.7298
C -1.5725 1.7447 -0.7903
C -2.2288 2.2751 0.5236
C -1.5737 3.5713 1.0564
C -0.1012 3.3109 1.1946
C 0.4660 2.9430 -0.1462
Cu 3.3995 0.0729 -0.0320
C 5.5495 0.0729 -0.0320
N 6.3647 -1.0067 -0.1429
C 6.0373 -2.5128 -0.0490
C 6.7836 -3.6677 -0.5860
C 8.1306 -3.6892 -1.2738
C 8.2200 -2.8705 -2.5574
C 9.1561 -3.3491 -0.2286
C 6.2522 -4.9982 -0.4777
C 5.0847 -5.2935 0.1884
C 4.3679 -4.2832 0.7186
C 4.7979 -2.9700 0.5561
C 3.7406 -2.0626 0.7431
C 4.1355 -1.1375 1.9233
C 3.5708 -1.8861 -0.8402
C 7.7342 -0.4556 -0.2028
C 7.6320 1.0288 -0.4270
N 6.2817 1.3193 -0.0554
C 5.8399 2.5620 0.5194
C 4.5831 3.1387 0.1111
C 3.6540 2.6150 -1.0308
C 2.9238 3.8001 -1.7543
C 4.2104 1.8124 -2.1844
C 4.1410 4.2908 0.8145
C 4.8611 4.8691 1.8284
C 6.0757 4.3652 2.1877
C 6.6301 3.2390 1.5607
C 8.0568 2.8358 2.0343
C 8.7065 3.7003 3.1067
C 8.1509 1.3853 2.5552
H -1.9823 -1.2258 -0.6777
H -2.7376 -3.2236 -1.8561
H -1.1142 -4.7691 -2.9474
H 1.2128 -4.1097 -3.0839
H 1.8651 -2.1837 -2.3851
H 2.1992 1.0784 2.5586
H 1.4348 0.9541 4.8788
H -0.7743 -0.0258 5.4225
H -2.2180 -0.8962 3.6086
H -1.4484 -0.8458 1.3095
H 0.3278 1.5741 -1.7908
H -2.0429 0.8320 -1.1691
H -1.7819 2.5246 -1.5641
H -2.1188 1.5356 1.3237
H -3.3166 2.4306 0.3739
H -1.9520 3.8215 2.0701
H -1.7306 4.4626 0.4024
H 0.0381 2.4843 1.8756
H 0.4505 4.1765 1.6217
H 1.4928 2.9154 0.1013
H 0.2488 3.7804 -0.8588
H 8.4178 -4.7250 -1.5796
H 7.8641 -1.8463 -2.4422
H 7.5936 -3.3188 -3.3530
H 9.2805 -2.8574 -2.8898
H 9.0075 -2.3734 0.1053
H 10.1873 -3.3780 -0.6104
H 9.0019 -3.9728 0.6762
H 6.7440 -5.8594 -0.9089
H 4.6942 -6.3003 0.2647
H 3.4078 -4.5122 1.1776
H 2.7518 -2.4329 1.0870
H 5.1987 -0.8337 2.0590
H 3.9763 -1.6368 2.8926
H 3.5530 -0.2546 1.8758
H 4.3367 -1.3464 -1.3734
H 2.7582 -1.2762 -1.0606
H 3.6248 -2.7233 -1.5675
H 8.4836 -0.7046 -0.9573
H 8.1984 -0.6604 0.7853
H 7.8079 1.4104 -1.4536
H 8.4785 1.4527 0.0822
H 2.9889 1.9153 -0.5704
H 3.6643 4.4828 -2.2119
H 2.3052 4.4674 -1.1368
H 2.2177 3.4193 -2.5233
H 4.8770 2.4596 -2.7886
H 3.3872 1.4319 -2.8258
H 4.7096 0.9109 -1.9434
H 3.2191 4.8001 0.6242
H 4.4783 5.7414 2.3416
H 6.5668 4.8987 2.9811
H 8.7188 3.0498 1.1683
H 8.0950 3.6275 4.0300
H 8.7854 4.7490 2.7496
H 9.7321 3.3309 3.3215
H 7.7663 1.2173 3.5708
H 9.2063 1.0131 2.4784
H 7.4631 0.7548 2.0190
