41
 
P 1.2750 0.0000 0.0000
O 0.4294 1.4075 0.5375
C -0.9658 1.3090 0.4886
C -1.4031 -0.0510 -0.0189
C -2.9344 -0.1133 -0.0426
C -0.7796 -0.2077 -1.4584
O 0.6250 0.0642 -1.5630
O 0.6275 -0.9918 1.2113
C -0.7808 -1.1143 0.9655
Cu 3.7350 0.0003 -0.0005
C 5.8850 0.0006 -0.0009
N 6.6395 1.1119 -0.0044
C 6.1637 2.4868 0.0048
C 7.9203 0.6963 -0.0186
C 7.9213 -0.6852 -0.0388
N 6.6386 -1.1103 -0.0151
C 6.1583 -2.4621 0.0034
C 4.9036 -2.7654 0.5683
C 4.4563 -4.0888 0.6120
C 5.2394 -5.1122 0.0707
C 6.4757 -4.8163 -0.5078
C 6.9403 -3.5002 -0.5303
H -1.3441 2.1189 -0.1736
H -1.3570 1.4915 1.5139
H -3.3364 0.6888 -0.7016
H -3.3367 0.0623 0.9804
H -3.2846 -1.0966 -0.4086
H -1.2877 0.5225 -2.1264
H -0.9929 -1.2249 -1.8470
H -1.2808 -0.9933 1.9519
H -1.0062 -2.1361 0.5965
H 5.0515 2.5089 0.0033
H 6.5361 3.0139 -0.8986
H 6.5388 3.0060 0.9120
H 8.7872 1.3444 -0.0127
H 8.7952 -1.3233 -0.0396
H 4.2891 -1.9961 1.0076
H 3.5040 -4.3218 1.0703
H 4.8899 -6.1354 0.1006
H 7.0783 -5.6060 -0.9368
H 7.8995 -3.2900 -0.9846
