87
 
P 0.9736 -0.0756 0.0599
C 0.0667 0.1901 1.7496
C 0.6516 -0.7598 2.8837
C 2.0685 -0.3241 3.3354
C 2.1072 1.1732 3.7531
C 1.4440 2.1100 2.7282
C 0.0548 1.5989 2.3650
C 0.4791 1.3107 -1.3812
C 0.7498 2.8428 -1.1830
C 2.2586 3.0894 -1.2534
C 2.8691 2.8785 -2.6548
C 2.3576 1.5952 -3.3504
C 0.8936 1.1684 -2.9523
C 0.3338 -1.7442 -0.4000
C 0.9491 -2.5169 -1.4028
C 2.1095 -2.0520 -2.1570
C 0.4603 -3.7765 -1.7640
C -0.7276 -4.2421 -1.2418
C -1.4322 -3.4521 -0.3477
C -0.9060 -2.2346 0.0842
Cu 3.4336 -0.0756 0.0599
C 5.5836 -0.0756 0.0599
N 6.3872 -1.1631 -0.2574
C 5.9336 -2.4828 -0.6419
C 6.4119 -3.5800 0.2963
C 4.4527 -2.4535 -0.6093
C 7.6890 -0.7756 -0.1541
C 7.7080 0.5051 0.2638
C 8.9171 1.1935 0.4991
C 10.1280 0.5251 0.2776
C 10.1220 -0.8010 -0.1838
C 8.8985 -1.4716 -0.4085
N 6.4333 0.9551 0.3738
C 6.1443 2.3141 0.7197
C 6.3604 2.5408 2.1606
C 7.0151 3.7026 2.5085
C 7.2376 4.0635 3.8069
C 6.5264 3.3876 4.7818
C 5.7765 2.2385 4.4542
C 5.7837 1.7397 3.1442
H -0.9997 -0.0226 1.6541
H 0.6711 -1.8327 2.5826
H 0.0031 -0.7280 3.7945
H 2.7546 -0.5353 2.4958
H 2.4163 -0.9410 4.2044
H 3.1428 1.5256 3.9215
H 1.5784 1.2886 4.7248
H 2.0406 2.2106 1.8022
H 1.3516 3.1244 3.1848
H -0.4708 2.2894 1.6864
H -0.5373 1.5553 3.3161
H -0.6305 1.2064 -1.4275
H 0.3337 3.2522 -0.2503
H 0.2358 3.4546 -1.9873
H 2.6845 2.3685 -0.5312
H 2.5093 4.1280 -0.9498
H 3.9773 2.8182 -2.5294
H 2.7250 3.7815 -3.2988
H 3.0583 0.7986 -3.0821
H 2.4804 1.7096 -4.4687
H 0.6291 0.2013 -3.4302
H 0.2417 1.8753 -3.5432
H 2.4741 -1.0855 -1.7652
H 1.9645 -1.9305 -3.2331
H 2.7670 -2.9113 -2.1532
H 1.0011 -4.3838 -2.4809
H -1.1136 -5.1951 -1.5687
H -2.3971 -3.7779 0.0101
H -1.5385 -1.7053 0.7579
H 6.2879 -2.7099 -1.6808
H 6.0709 -3.3512 1.3241
H 7.5051 -3.6910 0.2621
H 5.9814 -4.5524 -0.0335
H 3.9429 -2.1136 0.3041
H 4.1568 -3.4910 -0.8631
H 4.2932 -1.6738 -1.3440
H 8.9505 2.2151 0.8457
H 11.0669 1.0411 0.4555
H 11.0708 -1.2967 -0.3627
H 8.9389 -2.4855 -0.7748
H 5.1028 2.5806 0.5146
H 6.8258 2.9660 0.1116
H 7.2464 4.4131 1.7518
H 7.8281 4.9475 4.0051
H 6.5127 3.8379 5.7571
H 5.1512 1.7661 5.1923
H 5.2406 0.8387 2.8672
