34
 
P 1.2750 0.0000 0.0000
O 0.4215 1.4660 -0.3325
C -0.9741 1.3567 -0.2953
C -1.4053 -0.0633 0.0128
C -2.9378 -0.1362 0.0287
C -0.7798 -0.9713 -1.1142
O 0.6281 -0.8106 -1.3402
O 0.6241 -0.1594 1.5564
C -0.7796 -0.4215 1.4143
Cu 3.7350 0.0003 -0.0005
C 5.8850 0.0006 -0.0009
N 6.6432 0.5264 0.9719
C 6.1597 1.1819 2.1768
C 7.9234 0.3245 0.5993
C 7.9169 -0.3379 -0.6168
N 6.6327 -0.5357 -0.9770
C 6.1280 -1.1905 -2.1755
H -1.3665 1.6822 -1.2838
H -1.3578 2.0617 0.4756
H -3.3443 0.1828 -0.9573
H -3.3442 0.5595 0.7969
H -3.2836 -1.1637 0.2493
H -1.2836 -0.7118 -2.0719
H -0.9986 -2.0363 -0.8955
H -1.2902 0.2033 2.1800
H -0.9903 -1.4847 1.6533
H 5.0438 1.1898 2.1819
H 6.5324 2.2273 2.2076
H 6.5292 0.6360 3.0707
H 8.7937 0.6330 1.1638
H 8.7805 -0.6493 -1.1904
H 6.9683 -1.5389 -2.8130
H 5.5053 -0.4773 -2.7558
H 5.5038 -2.0628 -1.8878
