75
 
P 1.0968 -0.0097 0.0231
C 0.3356 0.0600 -1.7016
C -0.9159 -0.4849 -2.1134
C -1.2510 -0.5823 -3.4924
C -0.3547 -0.1667 -4.4793
C 0.8564 0.3976 -4.1008
C 1.1908 0.5160 -2.7391
C 0.5377 -1.5019 0.9644
C 1.4930 -2.4180 1.4248
C 1.1022 -3.5955 2.0921
C -0.2464 -3.8685 2.3318
C -1.2143 -2.9467 1.9380
C -0.8345 -1.7673 1.2613
C 0.6355 1.6522 0.6433
C 1.0451 2.0224 1.9555
C 1.9329 1.1644 2.8210
C 0.5852 3.2214 2.5265
C -0.2929 4.0496 1.8359
C -0.7023 3.7056 0.5506
C -0.2399 2.5253 -0.0514
Cu 3.5568 -0.0097 0.0231
C 5.7068 -0.0097 0.0231
N 6.4743 0.5474 -0.9363
C 5.9541 1.2004 -2.1436
C 5.0659 0.2303 -2.9324
C 5.0961 2.3970 -1.7507
C 7.7512 0.3171 -0.5397
C 7.7358 -0.3453 0.6690
C 8.9392 -0.6509 1.3390
C 10.1541 -0.3455 0.7163
C 10.1682 0.2996 -0.5314
C 8.9620 0.6551 -1.1688
N 6.4468 -0.6032 1.0329
C 5.9916 -1.2960 2.3055
C 5.9879 -2.8258 2.1679
C 7.1430 -3.3722 1.6365
C 7.2298 -4.6704 1.2157
C 6.1779 -5.5393 1.4285
C 5.0446 -5.0955 2.1233
C 4.9236 -3.7251 2.4788
H -1.6289 -0.8775 -1.4086
H -2.1922 -1.0144 -3.8200
H -0.5887 -0.2882 -5.5382
H 1.5501 0.7170 -4.8734
H 2.1537 0.9395 -2.5032
H 2.5437 -2.2117 1.2519
H 1.8425 -4.3100 2.4226
H -0.5396 -4.7903 2.8307
H -2.2583 -3.1637 2.1566
H -1.6300 -1.0875 0.9821
H 2.2278 0.2022 2.3699
H 1.4016 0.9289 3.7677
H 2.8665 1.7175 3.0426
H 0.8844 3.4988 3.5313
H -0.6670 4.9520 2.3073
H -1.4022 4.3497 0.0317
H -0.6225 2.3005 -1.0346
H 6.7977 1.5303 -2.7889
H 4.1942 -0.0710 -2.3089
H 5.6287 -0.6791 -3.2199
H 4.6795 0.7251 -3.8504
H 4.2062 1.9974 -1.1603
H 4.7506 2.9217 -2.6710
H 5.7218 3.1216 -1.1797
H 8.9707 -1.1359 2.3063
H 11.0856 -0.6116 1.2037
H 11.1215 0.5310 -0.9898
H 8.9991 1.1679 -2.1179
H 4.9999 -0.9241 2.6434
H 6.7147 -1.0418 3.1164
H 7.9925 -2.7936 1.4782
H 8.1321 -4.9618 0.7017
H 6.2727 -6.5513 1.0624
H 4.2655 -5.8206 2.3366
H 4.0115 -3.3983 2.9683
