50
 
P 1.0912 0.0285 0.0294
C 0.3400 0.2061 -1.6042
C -0.8610 -0.3872 -2.0030
C -1.2682 -0.2979 -3.3431
C -0.4890 0.3901 -4.2824
C 0.6933 1.0108 -3.8844
C 1.1070 0.9170 -2.5542
C 0.6925 -1.7151 0.2743
C 1.0344 -2.7418 -0.6105
C 0.6987 -4.0698 -0.2963
C 0.0342 -4.3743 0.8995
C -0.3228 -3.3520 1.7761
C -0.0043 -2.0306 1.4610
C 0.6494 1.4120 1.1430
C 1.0433 1.4222 2.5196
O 1.8064 0.4139 3.0336
C 2.2734 0.3478 4.3416
C 0.5983 2.4758 3.3549
C -0.2177 3.4850 2.8579
C -0.5980 3.4749 1.5200
C -0.1685 2.4512 0.6684
Cu 3.5512 0.0285 0.0294
N 5.6512 0.0285 0.0294
C 6.2990 1.0528 0.6449
C 7.6906 1.1485 0.5698
C 8.4042 0.1760 -0.1359
Cl 10.1487 0.2951 -0.2775
C 7.7199 -0.8815 -0.7431
C 6.3259 -0.9371 -0.6493
H -1.4574 -0.9417 -1.2955
H -2.1799 -0.7809 -3.6613
H -0.7955 0.4374 -5.3203
H 1.2993 1.5450 -4.6098
H 2.0450 1.3871 -2.2740
H 1.5510 -2.5163 -1.5312
H 0.9595 -4.8691 -0.9744
H -0.2066 -5.4005 1.1497
H -0.8404 -3.5827 2.7019
H -0.2941 -1.2538 2.1605
H 2.7977 -0.6141 4.5103
H 1.4337 0.4015 5.0709
H 2.9855 1.1785 4.5445
H 0.8588 2.5215 4.4052
H -0.5624 4.2718 3.5194
H -1.2410 4.2604 1.1467
H -0.4996 2.4656 -0.3586
H 5.7279 1.8112 1.1640
H 8.2042 1.9788 1.0379
H 8.2588 -1.6389 -1.2978
H 5.7780 -1.7314 -1.1385
