29
 
P 0.9506 0.0721 -0.0486
C -0.0169 1.5332 0.4251
C 0.4745 -0.1167 -1.7884
C 0.4772 -1.1025 1.2494
Cu 3.4106 0.0721 -0.0486
C 5.5606 0.0721 -0.0486
N 6.3192 0.6233 -1.0072
C 5.8379 1.3123 -2.1944
C 7.5993 0.4076 -0.6419
C 7.5925 -0.2831 0.5583
N 6.3082 -0.4844 0.9163
C 5.8034 -1.1622 2.1019
H -1.1081 1.3922 0.3793
H 0.3008 2.3706 -0.2380
H 0.3006 1.8226 1.4533
H -0.6361 -0.1551 -1.8434
H 0.8669 -1.0853 -2.1621
H 0.8524 0.7183 -2.4075
H -0.6334 -1.1671 1.2721
H 0.8554 -0.7897 2.2404
H 0.8712 -2.1053 0.9830
H 4.7227 1.3279 -2.1986
H 6.2033 0.7888 -3.1031
H 6.2157 2.3564 -2.1974
H 8.4697 0.7265 -1.2005
H 8.4559 -0.6104 1.1230
H 6.6436 -1.5262 2.7306
H 5.1746 -2.0256 1.7980
H 5.1854 -0.4580 2.6981
