106
 
P 1.0932 -0.0277 -0.0234
C 0.0158 1.4639 -0.5336
C -1.1860 1.2821 -1.2625
C -1.9578 2.3706 -1.7113
C -1.5602 3.6820 -1.4721
C -0.3609 3.9146 -0.8392
C 0.4160 2.8467 -0.4089
C 0.4303 -1.2546 -1.1870
C 0.7169 -1.1467 -2.5524
C 0.1046 -2.0081 -3.4686
C -0.7854 -2.9918 -3.0264
C -1.0490 -3.1323 -1.6628
C -0.4487 -2.2659 -0.7451
C 0.5401 -0.1270 1.8190
C -0.8216 -0.2253 2.2433
O -1.8052 -0.3639 1.3240
C -3.1316 -0.5920 1.6362
C -1.1478 -0.1947 3.6381
C -0.1705 -0.0625 4.6124
C 1.1412 -0.0750 4.2310
C 1.4682 -0.1535 2.8813
Cu 3.5532 -0.0277 -0.0234
C 5.7032 -0.0277 -0.0234
N 6.4970 -1.1064 -0.1918
C 6.1430 -2.6149 -0.2507
C 6.8614 -3.7526 -0.9039
C 8.0517 -3.7389 -1.8253
C 7.6404 -3.6023 -3.2961
C 8.9269 -2.6490 -1.4625
C 6.4418 -5.1179 -0.7495
C 5.4023 -5.4914 0.0410
C 4.7042 -4.5259 0.6176
C 5.0049 -3.1535 0.4359
C 3.9464 -2.3844 0.9718
C 2.7734 -2.7194 -0.0173
C 3.9461 -2.5267 2.5018
C 7.8564 -0.5713 0.1404
C 7.7926 0.8924 0.0085
N 6.4508 1.1983 0.2350
C 6.0301 2.5780 0.4350
C 6.7916 3.7369 -0.0183
C 8.1467 3.7215 -0.7609
C 7.8842 3.5897 -2.2606
C 9.0480 4.9258 -0.4786
C 6.2047 5.0167 0.1279
C 4.9640 5.2083 0.6809
C 4.3021 4.1546 1.1951
C 4.8408 2.8610 1.1324
C 4.0669 1.8296 1.8125
C 3.8676 2.0842 3.3122
C 2.8028 1.9490 1.1397
H -1.5532 0.3026 -1.5084
H -2.8746 2.2006 -2.2531
H -2.1611 4.5217 -1.7970
H -0.0108 4.9338 -0.6819
H 1.3084 3.2506 -0.0192
H 1.3923 -0.3802 -2.9068
H 0.3087 -1.9024 -4.5247
H -1.2716 -3.6437 -3.7408
H -1.7312 -3.9013 -1.3190
H -0.6851 -2.3798 0.3040
H -3.7125 -0.6821 0.7019
H -3.5275 0.2574 2.2326
H -3.2448 -1.5370 2.2199
H -2.1620 -0.2569 3.9994
H -0.4134 0.0192 5.6658
H 1.9169 -0.0103 4.9877
H 2.4916 -0.1968 2.7023
H 8.6716 -4.6526 -1.6657
H 6.9846 -2.7106 -3.4321
H 7.1041 -4.5017 -3.6497
H 8.5603 -3.4479 -3.9000
H 8.3244 -1.8054 -1.8550
H 9.8867 -2.6022 -1.9851
H 9.1023 -2.7348 -0.3548
H 6.9304 -5.9451 -1.2418
H 5.0748 -6.5139 0.1908
H 3.8344 -4.8593 1.1833
H 4.2051 -1.4442 0.8940
H 2.5802 -3.8018 -0.2623
H 3.0239 -2.2412 -1.0074
H 1.8078 -2.4807 0.3933
H 3.6709 -3.5191 2.7752
H 3.2506 -1.9363 3.0633
H 4.9521 -2.2946 2.9470
H 8.8113 -0.6401 -0.3973
H 8.1022 -0.8280 1.1870
H 8.0225 1.1663 -1.0496
H 8.4658 1.3351 0.7758
H 8.8470 2.9714 -0.3942
H 7.2328 4.4271 -2.5861
H 7.3568 2.6450 -2.5075
H 8.8407 3.6229 -2.8194
H 8.6367 5.8459 -0.9250
H 10.0475 4.7778 -0.9444
H 9.1966 5.0167 0.6213
H 6.6783 5.9086 -0.2121
H 4.5065 6.1802 0.7402
H 3.3273 4.3337 1.6411
H 4.5545 0.8299 1.7862
H 3.2805 3.0066 3.4819
H 4.8346 2.0590 3.8297
H 3.2924 1.3103 3.8163
H 1.8792 2.2460 1.6915
H 2.6895 1.0192 1.2647
H 2.8905 1.9463 0.0282
