33
 
C 0.9010 -0.6430 -0.0020
N -0.3520 -1.1057 0.1070
C -0.7371 -2.4972 0.2795
C -1.1557 -0.0233 0.0727
C -0.3570 1.0991 -0.0688
N 0.9285 0.6939 -0.1059
C 2.1222 1.5102 -0.2746
Cu 2.6584 -1.8814 -0.0135
N 4.3750 -3.0911 -0.0247
C 5.5712 -2.4993 0.1598
C 5.5857 -1.0132 0.2625
C 6.7208 -3.2941 0.3061
C 6.5946 -4.6894 0.2557
C 5.3465 -5.2683 0.0143
C 4.2315 -4.4365 -0.1432
C 2.8881 -4.9875 -0.5056
H 0.1737 -3.1413 0.2892
H -1.4077 -2.8083 -0.5465
H -1.2709 -2.6133 1.2485
H -2.2351 -0.0445 0.1483
H -0.6892 2.1268 -0.1416
H 1.8508 2.5831 -0.3697
H 2.6566 1.1962 -1.1979
H 2.7960 1.3738 0.5954
H 4.5254 -0.6262 0.1414
H 6.2441 -0.5951 -0.5284
H 5.9906 -0.7283 1.2567
H 7.6911 -2.8492 0.4830
H 7.4611 -5.3248 0.3904
H 5.2513 -6.3457 -0.0538
H 2.9180 -6.0946 -0.6097
H 2.6163 -4.5746 -1.5027
H 2.1118 -4.6778 0.2211
