67
 
P 1.0081 0.0705 0.0705
C 0.3009 0.9602 1.5645
C -1.2102 1.1468 1.6964
C 0.8593 0.3698 2.8753
C 0.4823 1.0868 -1.3865
C 0.9903 2.5287 -1.4139
C 0.8943 0.3749 -2.6805
C 0.5157 -1.7388 0.0834
C 0.9980 -2.5586 1.2786
C -1.0046 -1.9541 -0.0900
Cu 3.4681 0.0705 0.0705
P 5.9281 0.0705 0.0705
N 6.8247 -1.1514 -0.8671
C 6.3586 -1.1143 -2.2596
C 8.2649 -1.3873 -0.8154
C 8.7772 -1.2659 0.5618
N 9.0564 0.1244 1.0412
C 8.4817 1.4722 0.6972
C 7.9071 1.7316 -0.6999
N 6.4390 1.4873 -0.8370
C 5.6511 2.6154 -0.3234
N 6.2774 -0.3429 1.8576
C 5.3283 -1.3525 2.3194
C 7.4625 -0.2571 2.8652
C 8.9510 0.0463 2.4743
H 0.7430 1.9765 1.5071
H -1.7432 0.1954 1.8383
H -1.6210 1.7121 0.8398
H -1.4109 1.7404 2.6190
H 0.3577 -0.5644 3.1593
H 0.6643 1.0523 3.7289
H 1.9585 0.2072 2.8114
H -0.6291 1.1186 -1.3720
H 2.0961 2.5629 -1.4927
H 0.6459 3.0962 -0.5285
H 0.5633 3.0378 -2.3103
H 1.9998 0.2929 -2.7501
H 0.5175 0.9335 -3.5658
H 0.4508 -0.6428 -2.7236
H 0.9995 -2.1740 -0.8153
H 0.4239 -2.3426 2.1898
H 2.0843 -2.4186 1.4409
H 0.7965 -3.6351 1.0865
H -1.5832 -1.5946 0.7759
H -1.2348 -3.0397 -0.1674
H -1.3892 -1.4658 -1.0094
H 5.2493 -1.0354 -2.3066
H 6.6464 -2.0438 -2.7928
H 6.7977 -0.2409 -2.7895
H 8.8740 -0.8320 -1.5466
H 8.3832 -2.4657 -1.0786
H 9.7169 -1.8497 0.6646
H 8.0693 -1.8683 1.1752
H 9.3267 2.1801 0.8481
H 7.7329 1.8473 1.4343
H 8.5138 1.2332 -1.4697
H 8.0898 2.8104 -0.9031
H 5.9477 3.5614 -0.8223
H 5.7697 2.7401 0.7763
H 4.5759 2.4423 -0.5455
H 4.2728 -1.0736 1.9877
H 5.3790 -1.4540 3.4374
H 5.6687 -2.3353 1.9238
H 7.6056 -1.2721 3.3019
H 7.2100 0.3181 3.7838
H 9.6616 -0.7260 2.8761
H 9.3569 0.9726 2.9525
