45
 
C 0.9010 -0.6430 -0.0020
N -0.3626 -1.0907 0.0791
C -0.7517 -2.5075 0.0652
C -0.1089 -3.1709 1.2843
C -2.2925 -2.6535 0.0752
C -0.2255 -3.1860 -1.2257
C -1.1439 0.0144 0.0386
C -0.3265 1.1198 -0.0458
N 0.9549 0.6954 -0.0785
C 2.1732 1.5187 -0.0137
C 2.1276 2.3786 1.2730
C 3.4294 0.6263 0.0670
C 2.2496 2.4020 -1.2573
Cu 2.6584 -1.8814 -0.0135
O 4.3342 -3.0623 -0.0245
C 4.6365 -3.3897 -1.3461
C 4.7790 -2.1800 -2.2321
C 5.8716 -4.2913 -1.3612
H -0.5312 -2.6878 2.1953
H 1.0288 -3.0335 1.2325
H -0.3842 -4.2474 1.3160
H -2.7261 -2.1718 0.9755
H -2.5992 -3.7199 0.0572
H -2.7333 -2.1640 -0.8258
H 0.8813 -3.1269 -1.2959
H -0.6521 -2.7040 -2.1335
H -0.5096 -4.2617 -1.2515
H -2.2254 0.0324 0.0573
H -0.6479 2.1531 -0.0558
H 2.0633 1.7299 2.1771
H 1.2445 3.0508 1.2822
H 3.0409 3.0036 1.3688
H 3.3855 -0.0265 0.9706
H 4.3613 1.2187 0.1291
H 3.4985 0.0428 -0.8509
H 1.3525 3.0520 -1.3220
H 2.2861 1.7608 -2.1643
H 3.1570 3.0392 -1.2222
H 3.7908 -4.0095 -1.7268
H 5.6143 -1.5490 -1.8756
H 3.8200 -1.6198 -2.2111
H 4.9852 -2.5254 -3.2711
H 6.7535 -3.7427 -0.9742
H 6.0785 -4.6537 -2.3908
H 5.6994 -5.1845 -0.7173
