60
 
P 1.2750 0.0000 0.0000
N 0.4639 1.5326 -0.2475
C 1.1151 2.5139 0.6859
C 2.6741 2.6207 0.4714
C 0.5455 3.9273 0.5369
C -0.9931 1.4161 -0.2207
C -1.4221 -0.0311 0.0201
C -2.9576 -0.0797 0.0179
C -0.8482 -0.9563 -1.1442
N 0.6457 -0.9401 -1.3605
C 1.2064 -2.3504 -1.3039
C 0.6384 -3.3338 -2.3381
C 2.7502 -2.4559 -1.4032
N 0.6507 -0.3721 1.6121
C 1.2261 -1.6710 2.1214
C 2.7793 -1.7122 2.1782
C 0.6809 -2.1043 3.4905
C -0.8468 -0.4667 1.4370
Cu 3.7350 0.0003 -0.0005
N 5.8350 0.0006 -0.0009
C 6.4778 -1.1951 0.0720
C 7.8699 -1.2390 0.1727
C 8.5883 -0.0418 0.2047
F 9.9390 -0.0634 0.3215
C 7.9091 1.1775 0.1300
C 6.5141 1.1780 0.0304
H 0.9369 2.2040 1.7410
H 2.9464 2.8426 -0.5782
H 3.2450 1.7361 0.7503
H 3.0983 3.4039 1.1357
H 0.7380 4.3158 -0.4828
H 1.0316 4.5932 1.2841
H -0.5367 3.9692 0.7525
H -1.3745 1.7719 -1.2043
H -1.4392 2.0497 0.5691
H -3.3484 0.2554 -0.9688
H -3.3655 0.6025 0.7956
H -3.3192 -1.1076 0.2166
H -1.3170 -0.6693 -2.1096
H -1.2213 -1.9718 -0.8971
H 0.8984 -2.8210 -0.3843
H 0.9431 -3.0565 -3.3634
H -0.4605 -3.4379 -2.2787
H 1.0437 -4.3507 -2.1096
H 3.1118 -2.2259 -2.4216
H 3.0666 -3.4878 -1.1245
H 3.3132 -1.8237 -0.7322
H 0.8924 -2.4937 1.5067
H 3.1618 -1.0123 2.9484
H 3.3073 -1.5178 1.2213
H 3.1016 -2.7423 2.4466
H 0.9823 -1.4050 4.2907
H 1.0819 -3.1197 3.7221
H -0.4212 -2.2186 3.4859
H -1.3062 0.1746 2.2214
H -1.2211 -1.4973 1.5990
H 5.9023 -2.1116 0.0684
H 8.3829 -2.1899 0.2397
H 8.4557 2.1109 0.1637
H 5.9701 2.1124 -0.0053
