39
 
C 0.9010 -0.6430 -0.0020
N -0.3456 -1.0998 0.0153
C -0.6968 -2.5147 0.0262
C -1.5711 -2.8174 -1.2002
C 0.6051 -3.3971 0.0553
C -1.1369 -0.0026 0.0178
C -0.3158 1.1167 0.0014
N 0.9652 0.6893 -0.0122
C 2.2117 1.4595 -0.0233
C 3.4428 0.5018 -0.0383
C 2.2329 2.4110 -1.2283
Cu 2.6584 -1.8814 -0.0135
N 4.3750 -3.0911 -0.0247
C 4.2067 -4.4388 0.0449
C 5.3165 -5.2818 0.1468
Cl 5.1023 -7.0170 0.2894
C 6.5965 -4.7229 0.1615
C 6.7493 -3.3373 0.0663
C 5.6126 -2.5274 -0.0255
H -1.3033 -2.7165 0.9392
H -1.0161 -2.5881 -2.1341
H -2.4912 -2.1885 -1.1844
H -1.8912 -3.8789 -1.2098
H 1.2408 -3.2528 -0.8269
H 0.2854 -4.4592 0.1190
H 1.2504 -3.1705 0.9153
H -2.2195 -0.0063 0.0279
H -0.6312 2.1525 -0.0037
H 2.2491 2.0760 0.9015
H 3.4495 -0.1390 -0.9360
H 3.4386 -0.1569 0.8440
H 4.3799 1.0890 -0.0074
H 2.1689 1.8475 -2.1828
H 3.1630 3.0170 -1.2219
H 1.3730 3.1158 -1.1815
H 3.2063 -4.8503 0.0573
H 7.4681 -5.3584 0.2546
H 7.7374 -2.8963 0.0825
H 5.7148 -1.4519 -0.0724
