51
 
P -1.2571 -0.0442 1.0145
N -1.1693 -1.2638 -0.2837
C -2.3384 -1.1110 -1.1813
C 0.0210 -1.4966 -1.1104
C 1.3064 -1.2941 -0.4000
N 1.9754 0.1030 -0.3705
C 1.2736 1.4876 -0.2268
C -0.0883 1.6649 -0.8881
N -1.3435 1.3689 -0.0749
C -1.7721 2.5034 0.7418
N 0.1660 -0.3265 2.2364
C -0.0424 -1.4653 3.0651
C 1.6949 -0.0865 2.1296
C 2.7307 0.0040 0.8826
Cu -3.2736 0.0409 2.4391
N -5.0089 0.0992 3.5102
C -5.3953 -1.0283 4.2011
O -4.6398 -2.1544 4.1788
C -3.4759 -2.2619 3.4535
C -6.6043 -1.0350 4.9188
C -7.4471 0.0711 4.8411
C -7.0506 1.1918 4.1164
C -5.8027 1.2007 3.4819
H -3.3079 -0.9677 -0.6474
H -2.4428 -2.0042 -1.8327
H -2.1919 -0.2294 -1.8435
H 0.0386 -0.9370 -2.0360
H -0.0390 -2.5842 -1.3596
H 1.9474 -2.1779 -0.1302
H 0.9251 -1.7102 0.5272
H 1.9964 2.3320 -0.0435
H 0.9717 1.8784 0.7741
H -0.0233 1.0760 -1.7922
H -0.1072 2.7111 -1.2553
H -1.8222 3.4240 0.1193
H -1.0617 2.6670 1.5783
H -2.7874 2.2832 1.1794
H -0.9086 -1.2650 3.6365
H 0.7942 -1.5180 3.7933
H -0.0560 -2.3586 2.4169
H 1.0388 0.1371 1.4770
H 2.0798 -1.0966 2.2245
H 3.4784 -0.8529 0.8050
H 3.5361 0.7775 0.9777
H -3.0211 -3.2686 3.5941
H -2.8159 -1.5072 3.8335
H -3.6402 -2.0744 2.3826
H -6.9148 -1.8922 5.5074
H -8.4112 0.0615 5.3350
H -7.7102 2.0450 4.0487
H -5.4787 2.0747 2.9417
