88
 
C 0.9010 -0.6430 -0.0020
N 0.0270 -0.4348 0.9987
C 0.0317 -1.1550 2.2584
C 1.3735 -0.7308 2.8388
C 1.1133 -0.3273 4.2713
C 0.7400 -1.5723 5.0646
C -0.4999 -2.2579 4.4686
C -0.3455 -2.5280 2.9687
C -0.7775 0.5717 0.6047
C -0.3987 0.9480 -0.6747
N 0.6273 0.1541 -1.0622
C 1.4468 0.1259 -2.2899
C 1.1954 -1.2326 -2.9273
C -0.2825 -1.2647 -3.4026
C -0.4518 -0.2615 -4.5549
C -0.1302 1.1676 -4.0906
C 1.2270 1.2353 -3.3689
Cu 2.6584 -1.8814 -0.0135
P 4.6693 -3.2985 -0.0267
C 5.6621 -3.1015 -1.6218
C 6.1585 -1.6294 -1.7165
C 6.8885 -4.0079 -1.8158
C 4.6993 -3.2819 -2.7993
C 5.6199 -2.8753 1.5665
C 4.7311 -3.1956 2.7601
C 6.9245 -3.6956 1.7534
C 6.0190 -1.3838 1.6479
C 4.0851 -5.0021 -0.0942
C 2.7313 -5.3015 -0.0819
C 2.3052 -6.6247 0.0837
C 3.2246 -7.7010 0.2474
N 2.7812 -9.0611 0.5290
C 1.3747 -9.4309 0.6615
C 3.6973 -10.1724 0.7845
C 4.5989 -7.3659 0.1770
C 5.0107 -6.0469 0.0181
H -0.0142 -1.9873 1.5241
H 1.8003 0.1718 2.3437
H 2.1043 -1.5373 2.6504
H 0.2837 0.4233 4.2844
H 2.0188 0.1475 4.6928
H 0.5391 -1.2847 6.1155
H 1.6086 -2.2654 5.0347
H -1.3796 -1.5943 4.5925
H -0.6903 -3.2089 5.0123
H -1.3177 -3.0102 2.6595
H 0.4700 -3.3177 2.8604
H -1.5595 1.0148 1.2085
H -0.8379 1.7500 -1.2480
H 2.5117 0.2129 -1.9771
H 1.4466 -2.0075 -2.1643
H 1.8714 -1.3975 -3.7919
H -0.9917 -1.0012 -2.5817
H -0.5527 -2.2793 -3.7484
H -1.4892 -0.2879 -4.9539
H 0.2376 -0.5634 -5.3725
H -0.9294 1.5176 -3.4160
H -0.1213 1.8508 -4.9728
H 1.4052 2.2566 -2.9677
H 2.0059 1.0637 -4.1482
H 6.9917 -1.4202 -1.0322
H 5.3340 -0.9023 -1.5333
H 6.5899 -1.4011 -2.7147
H 7.6643 -3.8320 -1.0558
H 7.3776 -3.7753 -2.7862
H 6.6158 -5.0718 -1.8560
H 3.8506 -2.5665 -2.7030
H 4.3096 -4.3157 -2.8400
H 5.2225 -3.0601 -3.7578
H 4.4408 -4.2658 2.7603
H 3.8363 -2.5783 2.7109
H 5.2585 -2.9715 3.7150
H 6.7420 -4.7842 1.8105
H 7.4249 -3.4197 2.7086
H 7.6783 -3.4783 0.9813
H 5.1505 -0.7175 1.4788
H 6.8312 -1.1172 0.9588
H 6.4585 -1.1546 2.6439
H 1.9983 -4.5088 -0.1402
H 1.2428 -6.7433 0.1217
H 0.6499 -8.6250 0.5030
H 1.1889 -9.8140 1.6882
H 1.1255 -10.2261 -0.0706
H 4.7671 -9.9377 0.7269
H 3.5104 -10.9895 0.0566
H 3.5251 -10.5653 1.8105
H 5.4011 -8.0745 0.2854
H 6.0711 -5.8594 0.0464
