43
 
C 0.9010 -0.6430 -0.0020
N -0.3853 -1.0658 -0.0678
C -0.9096 -2.4148 -0.1651
C -1.1545 0.0373 -0.0373
C -0.3312 1.1349 0.0531
N 0.9452 0.7027 0.0733
C 2.1329 1.5337 0.1701
Cu 2.6584 -1.8814 -0.0135
C 4.4159 -3.1199 -0.0250
N 5.6627 -2.6550 0.0032
C 6.0123 -1.2435 0.0468
C 6.8846 -0.9125 -1.1735
C 4.7110 -0.3748 0.0937
C 6.4678 -3.7419 -0.0221
C 5.6632 -4.8659 -0.0699
N 4.3798 -4.4521 -0.0625
C 3.1634 -5.2461 -0.0777
C 3.1466 -6.1604 1.1546
C 1.9338 -4.3092 -0.0947
H -0.1036 -3.1194 -0.1782
H -1.4796 -2.5418 -1.1080
H -1.5495 -2.6441 0.7106
H -2.2366 0.0378 -0.0784
H -0.6440 2.1695 0.1009
H 1.8579 2.6072 0.2275
H 2.7627 1.3816 -0.7281
H 2.6934 1.2674 1.0896
H 6.6150 -1.0594 0.9654
H 6.3297 -1.1229 -2.1122
H 7.8047 -1.5411 -1.1722
H 7.2038 0.1488 -1.1598
H 4.0818 -0.5146 -0.7932
H 5.0227 0.6879 0.1770
H 4.0685 -0.6273 0.9491
H 7.5498 -3.7280 -0.0106
H 5.9867 -5.8989 -0.1012
H 3.1548 -5.8761 -0.9952
H 3.1716 -5.5522 2.0842
H 4.0379 -6.8258 1.1527
H 2.2421 -6.8023 1.1590
H 1.8872 -3.6555 0.7894
H 1.0330 -4.9569 -0.1271
H 1.9369 -3.6380 -0.9689
