40
 
C 1.0322 -0.6592 -0.0532
N 0.3629 -0.1577 -1.0323
C 0.7091 -0.3081 -2.4245
C -0.7856 0.5964 -0.5636
C -0.8824 0.2119 0.9195
N 0.4216 -0.3423 1.1818
C 1.0266 -0.4429 2.4896
Cu 2.7793 -1.8660 -0.2879
P 4.7814 -3.2460 -0.5868
C 5.5981 -3.1882 -2.2015
C 6.0474 -2.5821 0.5476
C 4.2939 -5.0130 -0.3541
C 3.2554 -5.3563 -1.4247
C 5.5072 -5.9513 -0.4835
C 3.6449 -5.1825 1.0341
H 1.6232 -0.9343 -2.5410
H 0.8768 0.6875 -2.8854
H -0.1355 -0.8057 -2.9501
H -1.7319 0.3463 -1.0902
H -0.5553 1.6789 -0.6813
H -1.6108 -0.6228 1.0380
H -1.1797 1.0603 1.5729
H 0.3257 -0.0679 3.2695
H 1.9291 0.2064 2.5210
H 1.3090 -1.4870 2.7225
H 5.8301 -2.1166 -2.4017
H 4.8391 -3.4646 -2.9650
H 6.5072 -3.7955 -2.3084
H 6.2940 -1.5219 0.3424
H 6.9625 -3.2115 0.4616
H 5.6795 -2.6969 1.5854
H 3.6740 -5.2345 -2.4452
H 2.3699 -4.6891 -1.3339
H 2.8967 -6.4006 -1.3106
H 5.9702 -5.8339 -1.4865
H 5.1739 -7.0049 -0.3597
H 6.2615 -5.7333 0.2995
H 2.7664 -4.5065 1.1338
H 4.3520 -4.9502 1.8554
H 3.2866 -6.2233 1.1823
