52
 
C 2.3270 0.0340 0.0000
N 1.5414 1.1314 -0.0099
C 2.0411 2.5091 -0.0238
C 3.0152 2.6813 -1.1923
C 3.5783 4.1043 -1.3035
C 4.4831 4.2159 -2.5318
C 0.2731 0.6530 -0.0200
C 0.3065 -0.7273 -0.0119
C -0.8803 -1.4830 0.0082
C -2.1061 -0.8001 0.0060
C -2.1397 0.6065 -0.0159
C -0.9445 1.3523 -0.0278
N 1.5961 -1.1573 -0.0105
C 2.0149 -2.6280 -0.0037
C 2.6242 -3.0498 1.3290
C 1.9013 -2.6163 2.4303
C 2.4574 -2.6362 3.6943
C 3.6951 -3.2310 3.9150
C 4.3531 -3.8785 2.8635
C 3.8405 -3.7697 1.5484
Cu 4.4769 0.0580 0.0014
N 6.5767 0.0815 0.0028
C 7.1953 1.2860 0.1373
Cl 6.2302 2.7037 0.4578
C 8.5901 1.3847 0.0716
C 9.3425 0.2351 -0.1606
C 8.6992 -0.9999 -0.2616
C 7.3012 -1.0630 -0.1525
H 2.5958 2.7039 0.9174
H 1.1992 3.2300 -0.1009
H 2.4599 2.4600 -2.1362
H 3.8718 1.9589 -1.0045
H 4.1608 4.3449 -0.3911
H 2.7580 4.8500 -1.3977
H 5.3078 3.4742 -2.4738
H 4.9219 5.2336 -2.5962
H 3.8972 4.0267 -3.4580
H -0.8941 -2.5622 0.0323
H -3.0337 -1.3612 0.0213
H -3.0984 1.1114 -0.0192
H -0.9930 2.4315 -0.0384
H 2.6665 -2.8805 -0.8649
H 1.1170 -3.2743 -0.1112
H 0.9234 -2.1860 2.2835
H 1.9198 -2.1511 4.4902
H 4.1225 -3.1948 4.9086
H 5.2792 -4.4076 3.0821
H 4.4123 -4.2236 0.7430
H 9.0867 2.3400 0.1925
H 10.4210 0.3006 -0.2499
H 9.2834 -1.8951 -0.4316
H 6.8002 -2.0170 -0.2363
