87
 
P 0.9401 0.0442 -0.0668
C 0.1749 1.4259 -1.2485
C -1.3617 1.5273 -1.3165
C 0.6754 2.8659 -0.9295
C 0.6523 1.2432 -2.7097
C 0.4661 -1.7151 -0.7952
C 1.0738 -2.0330 -2.1769
C 0.9763 -2.8786 0.0919
C -1.0696 -1.9607 -0.8968
C 0.4078 0.4665 1.7481
C -1.1330 0.4899 1.8995
C 0.8909 -0.6075 2.7476
C 0.9431 1.7972 2.3081
Cu 3.4001 0.0442 -0.0668
P 5.8601 0.0442 -0.0668
C 6.6801 -1.3465 0.7808
C 7.4336 -2.3708 0.1582
C 7.8644 -3.4841 0.9079
C 7.5698 -3.5896 2.2728
O 8.0092 -4.6807 2.9533
C 8.2529 -4.7254 4.3114
C 6.8166 -2.5736 2.8845
C 6.3719 -1.4817 2.1411
C 6.3317 -0.0002 -1.7934
C 5.3514 -0.0177 -2.7804
C 5.7157 -0.0177 -4.1239
C 7.0729 0.0064 -4.5063
O 7.4476 -0.0328 -5.8118
C 6.5677 -0.2023 -6.8642
C 8.0580 0.0680 -3.5098
C 7.6889 0.0690 -2.1598
C 6.2617 1.5567 0.8255
C 5.2178 2.3519 1.3043
C 5.5216 3.5956 1.9048
C 6.8616 4.0509 2.0107
O 7.1911 5.2613 2.5433
C 6.2906 6.2174 2.9697
C 7.8920 3.2374 1.5273
C 7.5979 2.0013 0.9390
H -1.8234 1.9389 -0.4238
H -1.8526 0.6068 -1.5823
H -1.6691 2.2355 -2.1131
H 0.2487 3.3008 -0.0277
H 0.2948 3.5831 -1.6958
H 1.7838 2.9549 -0.9351
H 0.1733 0.4001 -3.1840
H 1.7623 1.2453 -2.8087
H 0.2716 2.0572 -3.3672
H 2.1797 -2.0188 -2.1389
H 0.7324 -1.4407 -3.0079
H 0.7331 -3.0403 -2.5095
H 2.0779 -2.8601 0.2035
H 0.6982 -3.8578 -0.3677
H 0.4812 -2.9507 1.0652
H -1.5716 -1.3322 -1.6255
H -1.5866 -1.9336 0.0798
H -1.2926 -2.9699 -1.3010
H -1.6095 -0.4234 1.5160
H -1.5847 1.3725 1.4534
H -1.4424 0.5794 2.9613
H 0.4849 -1.5938 2.5290
H 0.4867 -0.3977 3.7662
H 1.9942 -0.6472 2.8293
H 0.5387 2.6728 1.8147
H 2.0489 1.8302 2.3037
H 0.5896 1.9358 3.3558
H 7.6606 -2.3620 -0.8980
H 8.4263 -4.2814 0.4331
H 8.5103 -5.7629 4.6069
H 7.3702 -4.4116 4.9041
H 9.1182 -4.0667 4.5385
H 6.5356 -2.6238 3.9267
H 5.7510 -0.7433 2.6312
H 4.3034 -0.0197 -2.5150
H 4.9272 -0.0368 -4.8597
H 7.1184 -0.2123 -7.8248
H 5.8353 0.6324 -6.8844
H 6.0275 -1.1695 -6.7534
H 9.1097 0.1094 -3.7750
H 8.4638 0.1216 -1.4048
H 4.1762 1.9889 1.1562
H 4.7145 4.2152 2.2644
H 6.8330 7.1058 3.3580
H 5.6604 5.8063 3.7847
H 5.6521 6.5413 2.1195
H 8.9248 3.5753 1.5848
H 8.4209 1.4194 0.5451
