76
 
P 1.0936 -0.0344 0.0080
C 0.3292 -1.7398 -0.6222
C -1.2072 -1.8486 -0.6767
C 0.8290 -2.1630 -2.0354
C 0.8071 -2.9265 0.2492
C 0.6179 0.1878 1.8991
C 1.2274 -0.8624 2.8505
C 1.1221 1.5312 2.4829
C -0.9173 0.2167 2.1626
C 0.5618 1.3441 -1.2457
C -0.9791 1.4651 -1.3407
C 1.0445 2.7406 -0.7953
C 1.0984 1.1839 -2.6800
Cu 3.5536 -0.0344 0.0080
P 6.0136 -0.0344 0.0080
N 6.9505 -1.4467 0.5574
C 6.4902 -2.6387 -0.1494
C 8.3971 -1.4969 0.8001
C 8.9129 -0.2380 1.3688
N 9.1895 0.8847 0.4069
C 8.6936 1.2316 -0.9797
C 8.0433 0.1474 -1.8440
N 6.5667 -0.0580 -1.6647
C 5.7497 0.9247 -2.3794
N 6.4379 1.0848 1.4183
C 5.4608 1.1766 2.5113
C 7.4624 2.2088 1.4820
C 8.9981 2.0462 1.2217
H -1.6694 -1.2684 -1.4698
H -1.6970 -1.6332 0.2570
H -1.5147 -2.8890 -0.9074
H 0.4015 -1.5877 -2.8544
H 0.4486 -3.1817 -2.2878
H 1.9374 -2.2110 -2.1109
H 0.3293 -2.9294 1.2170
H 1.9171 -3.0143 0.2944
H 0.4257 -3.8973 -0.1403
H 2.3332 -0.8345 2.8206
H 0.8877 -1.8772 2.7378
H 0.8862 -0.6629 3.8921
H 2.2195 1.6254 2.4130
H 0.8461 1.6063 3.5622
H 0.6269 2.4153 2.0707
H -1.4176 -0.7267 1.9706
H -1.4349 1.0555 1.6623
H -1.1399 0.3559 3.2409
H -1.4560 1.5758 -0.3565
H -1.4306 0.6455 -1.8942
H -1.2881 2.3484 -1.9369
H 0.6382 3.0308 0.1721
H 0.6403 3.5276 -1.4753
H 2.1477 2.8316 -0.8002
H 0.6931 0.3266 -3.2039
H 2.2048 1.1616 -2.7054
H 0.7456 2.0311 -3.3123
H 5.3804 -2.6456 -0.2264
H 6.7908 -3.5524 0.4030
H 6.9248 -2.6529 -1.1696
H 9.0145 -1.8637 -0.0322
H 8.5215 -2.2391 1.6229
H 9.8180 -0.3962 1.9930
H 8.2172 -0.0220 2.2102
H 9.5803 1.6573 -1.5070
H 8.0300 2.1142 -1.0641
H 8.6276 -0.7810 -1.7773
H 8.2108 0.4736 -2.8948
H 6.0281 0.9606 -3.4524
H 5.8507 1.9405 -1.9371
H 4.6795 0.6096 -2.3144
H 4.4109 1.0824 2.1498
H 5.5287 2.1588 3.0572
H 5.7438 0.4111 3.2567
H 7.1537 2.8729 0.6823
H 7.5541 2.5325 2.5555
H 9.6389 1.9671 2.1454
H 9.4420 2.9662 0.7608
