56
 
P 0.9594 0.0743 -0.0532
C 0.1934 1.7735 -0.6950
C -1.3438 1.9007 -0.7204
C 0.7049 3.0143 0.0946
C 0.6681 2.0947 -2.1327
C 0.4852 -1.3339 -1.3335
C 1.0927 -1.1663 -2.7413
C 0.9944 -2.7286 -0.8900
C -1.0504 -1.5271 -1.5122
C 0.4257 -0.1445 1.7967
C -1.1156 -0.1743 1.9504
C 0.9102 -1.4942 2.3688
C 0.9637 0.9153 2.7753
Cu 3.4194 0.0743 -0.0532
C 5.5694 0.0743 -0.0532
N 6.4328 -0.8542 -0.5683
C 6.1970 -2.1113 -1.2711
C 7.6765 -0.3921 -0.3060
Cl 9.1857 -1.1872 -0.7428
C 7.5782 0.7991 0.3566
Cl 8.9357 1.7770 0.9066
N 6.2714 1.0912 0.5133
C 5.7370 2.2790 1.1686
H -1.8016 1.9853 0.2612
H -1.8434 1.1296 -1.2866
H -1.6447 2.8443 -1.2210
H 0.2796 3.1188 1.0909
H 0.3345 3.9540 -0.3803
H 1.8142 3.0859 0.1200
H 0.1776 1.4695 -2.8668
H 1.7780 2.1118 -2.2266
H 0.3044 3.0930 -2.4671
H 2.1984 -1.1621 -2.6997
H 0.7466 -0.3272 -3.3225
H 0.7586 -2.0070 -3.3922
H 2.0956 -2.7479 -0.7736
H 0.7196 -3.4957 -1.6536
H 0.4948 -3.1255 -0.0011
H -1.5480 -0.6861 -1.9882
H -1.5676 -1.8237 -0.5823
H -1.2751 -2.3474 -2.2257
H -1.5940 -0.9034 1.2817
H -1.5702 0.8062 1.8304
H -1.4228 -0.4526 2.9797
H 0.4938 -2.3469 1.8350
H 0.5169 -1.6400 3.4027
H 2.0140 -1.5620 2.4174
H 0.5529 1.9058 2.6164
H 2.0705 0.9510 2.7735
H 0.6164 0.6844 3.8089
H 5.1193 -2.3223 -1.3946
H 6.6830 -2.9406 -0.7075
H 6.6889 -2.0670 -2.2700
H 6.5623 2.9303 1.5329
H 5.1211 1.9836 2.0410
H 5.1330 2.8658 0.4483
