38
 
C 0.9010 -0.6430 -0.0020
N -0.3498 -1.1196 0.0122
C -0.7323 -2.5223 0.0259
C -1.1579 -0.0458 0.0266
C -0.3669 1.0891 0.0265
N 0.9390 0.7214 0.0152
C 2.0995 1.6251 -0.0056
C 1.9382 3.0306 -0.0358
C 3.0522 3.8866 -0.1249
C 4.3459 3.3675 -0.1878
C 4.5315 2.0025 -0.1233
C 3.4361 1.1626 -0.0221
Cu 2.6584 -1.8814 -0.0135
N 4.3750 -3.0911 -0.0247
C 5.5745 -2.4599 -0.0242
C 6.7665 -3.1954 -0.1351
O 7.9868 -2.6004 -0.1710
C 8.2072 -1.2401 -0.0794
C 6.6801 -4.5888 -0.2378
C 5.4315 -5.2188 -0.2197
C 4.2745 -4.4429 -0.1067
H 0.1832 -3.1625 0.0247
H -1.3489 -2.7496 -0.8685
H -1.3268 -2.7340 0.9408
H -2.2398 -0.0796 0.0398
H -0.7427 2.1019 0.0337
H 0.9617 3.4847 -0.0032
H 2.9169 4.9567 -0.1571
H 5.2110 4.0094 -0.2791
H 5.5285 1.5725 -0.1575
H 3.7392 0.1968 0.0296
H 5.5828 -1.3815 0.0364
H 9.2917 -1.0349 -0.1796
H 7.8594 -0.8628 0.9063
H 7.6727 -0.7078 -0.8961
H 7.5796 -5.1828 -0.3419
H 5.3614 -6.2949 -0.3121
H 3.2987 -4.9100 -0.1210
