60
 
C 2.3270 0.0340 0.0000
N 1.5465 1.1453 0.0219
C 2.0402 2.5208 0.0173
C 2.9520 2.7738 -1.1949
C 2.2408 2.6104 -2.5442
C 3.2200 2.8857 -3.6853
C 0.2664 0.6890 0.0039
C 0.2927 -0.6789 -0.0070
C -0.8783 -1.4468 0.0197
C -2.1074 -0.7747 0.0168
C -2.1470 0.6343 0.0018
C -0.9518 1.3882 0.0028
N 1.5781 -1.0855 -0.0259
C 2.0974 -2.4302 0.0248
C 1.6956 -3.2492 -1.1922
C 2.2759 -4.6393 -0.9757
C 1.9426 -5.5722 -2.1135
Cu 4.4769 0.0580 0.0014
N 6.5767 0.0815 0.0028
C 6.5360 1.4782 0.4971
C 7.2160 -0.5076 1.1963
C 7.4010 0.0440 -1.1809
C 8.7025 0.6469 -1.1603
C 9.4580 0.7926 -2.3182
C 8.9637 0.3075 -3.5204
C 7.7148 -0.3284 -3.5576
C 6.9270 -0.4480 -2.3964
H 2.6361 2.6866 0.9400
H 1.1988 3.2446 0.0115
H 3.8088 2.0665 -1.1594
H 3.3479 3.8093 -1.1219
H 1.3899 3.3225 -2.6129
H 1.8492 1.5751 -2.6510
H 3.6164 3.9212 -3.6095
H 2.7105 2.7712 -4.6645
H 4.0715 2.1721 -3.6415
H -0.8666 -2.5254 0.0452
H -3.0277 -1.3477 0.0268
H -3.1092 1.1311 -0.0017
H -0.9993 2.4674 0.0044
H 1.7159 -2.9077 0.9537
H 3.2079 -2.3876 0.0766
H 2.0836 -2.7738 -2.1200
H 0.5955 -3.3284 -1.2963
H 1.8549 -5.0602 -0.0347
H 3.3808 -4.5643 -0.8764
H 0.8405 -5.6489 -2.2259
H 2.3588 -6.5715 -1.8722
H 2.4014 -5.1906 -3.0485
H 5.8762 1.5661 1.3944
H 6.0359 2.1062 -0.2735
H 7.4982 1.9802 0.7295
H 6.5041 -0.5601 2.0512
H 8.1362 0.0343 1.5471
H 7.5732 -1.5319 0.9789
H 9.1357 1.0674 -0.2612
H 10.4183 1.3008 -2.2812
H 9.5512 0.4338 -4.4214
H 7.3505 -0.7052 -4.5000
H 5.9507 -0.9060 -2.4410
