87
 
C 1.0240 -0.6530 -0.0550
N 1.0185 0.6726 0.0656
C 2.1115 1.6662 0.3383
C 3.4588 1.6269 -0.1555
C 3.9310 0.6599 -1.1712
C 4.4564 2.5483 0.3116
C 4.1715 3.5344 1.2577
C 5.2340 4.3994 1.9127
C 2.8731 3.6631 1.6790
C 1.8759 2.7669 1.2653
C 0.6018 2.9800 1.9866
C -0.3741 1.0775 0.1217
C -1.1651 -0.1125 -0.2215
N -0.2980 -1.1926 0.0949
C -0.7894 -2.5204 0.4158
C -2.0726 -2.9573 -0.0570
C -3.1023 -2.1812 -0.8547
C -2.4952 -4.2661 0.1850
C -1.7358 -5.1691 0.9041
C -2.2313 -6.5666 1.0997
C -0.5327 -4.7568 1.4478
C -0.0642 -3.4505 1.2359
C 1.1965 -3.1115 1.9177
Cu 2.7802 -1.8697 -0.2955
C 4.5364 -3.0865 -0.5360
N 5.0673 -3.9347 0.4220
C 4.5018 -4.2583 1.7358
C 4.1082 -5.7479 1.7789
C 5.4079 -3.9236 2.9259
C 6.1877 -4.4775 -0.1198
C 6.3379 -4.0116 -1.3923
C 7.3679 -4.5172 -2.2063
C 8.2931 -5.4248 -1.6818
C 8.1612 -5.8728 -0.3669
C 7.0955 -5.4199 0.4236
N 5.3505 -3.1187 -1.6893
C 5.1730 -2.5135 -3.0584
C 6.1394 -1.4079 -3.6157
C 7.4962 -1.6280 -3.9801
C 8.2886 -0.6431 -4.5763
C 7.7650 0.6089 -4.8436
C 6.4343 0.8712 -4.5278
C 5.6292 -0.1258 -3.9343
H 3.1268 0.0129 -1.5928
H 4.7190 0.0348 -0.7094
H 4.3872 1.2847 -1.9737
H 5.4809 2.4807 -0.0389
H 6.2529 4.1835 1.5337
H 5.2388 4.1413 2.9980
H 5.0425 5.4943 1.8492
H 2.6466 4.4450 2.4013
H 0.5856 3.7964 2.7256
H 0.4732 2.0432 2.5750
H -0.1761 3.2579 1.2507
H -0.6269 1.9134 -0.5720
H -0.7091 1.2316 1.1481
H -1.2932 -0.1022 -1.3260
H -2.0917 -0.0879 0.4069
H -3.0971 -1.1141 -1.0534
H -4.0734 -2.2764 -0.3264
H -3.0974 -2.6063 -1.8706
H -3.4521 -4.5871 -0.2021
H -3.2102 -6.7131 0.5945
H -2.3591 -6.7728 2.1808
H -1.5067 -7.2816 0.6577
H 0.0447 -5.4652 2.0368
H 1.6123 -3.9583 2.5089
H 1.0996 -2.2401 2.6024
H 1.8151 -2.9790 1.0821
H 3.6297 -3.6308 1.8492
H 4.9961 -6.4075 1.8403
H 3.5536 -6.0330 0.8602
H 3.4886 -5.9654 2.6708
H 6.3087 -4.5612 2.9683
H 4.8415 -4.1119 3.8650
H 5.7162 -2.8604 2.9039
H 7.4730 -4.2806 -3.2295
H 9.1011 -5.7946 -2.3030
H 8.8711 -6.5930 0.0233
H 7.0242 -5.8284 1.4131
H 4.1251 -2.1688 -3.1555
H 5.2532 -3.3471 -3.7939
H 8.0030 -2.5410 -3.8828
H 9.3143 -0.8640 -4.8527
H 8.3909 1.3586 -5.3172
H 6.0313 1.8467 -4.7705
H 4.5938 0.1023 -3.7507
