79
 
C 2.3270 0.0340 0.0000
N 1.4990 -1.0645 -0.1069
C 1.8407 -2.4804 -0.1864
C 1.7913 -2.9912 -1.6527
C 2.5853 -2.1283 -2.6220
C 3.9021 -2.0249 -2.0683
C 0.2336 -0.5898 -0.0694
C 0.2758 0.7616 0.0715
C -0.9009 1.5267 0.1376
C -2.1350 0.8551 0.0757
C -2.1774 -0.5458 -0.0650
C -0.9836 -1.2880 -0.1429
N 1.5736 1.1475 0.1242
C 2.1106 2.4735 0.2383
C 1.6919 3.1547 1.5403
C 2.2857 4.5510 1.4584
C 1.9376 5.4159 2.6419
Cu 4.4769 0.0580 0.0014
C 6.6267 0.0821 0.0028
N 7.5375 -0.9676 -0.1641
C 7.3391 -2.3947 -0.4215
C 6.6776 -2.5927 -1.7557
C 7.1017 -2.1257 -3.1779
C 6.0395 -2.3974 -4.3087
C 8.7741 -0.4468 -0.0576
C 8.6718 0.8801 0.1832
C 9.8293 1.6732 0.3158
C 11.0901 1.0521 0.1804
C 11.1824 -0.3281 -0.0620
C 10.0213 -1.0939 -0.1797
N 7.3523 1.2177 0.2463
C 6.8158 2.5519 0.4563
C 7.1782 3.4112 -0.7598
C 6.5967 2.7202 -2.0013
C 6.8855 3.4589 -3.2807
H 1.1552 -3.0847 0.4355
H 2.8163 -2.6324 0.3290
H 0.7687 -3.0006 -2.0555
H 2.2121 -4.0233 -1.6469
H 2.2095 -1.0917 -2.7218
H 2.7094 -2.5926 -3.6286
H 3.9724 -1.6658 -1.0424
H 4.4342 -1.2188 -2.5929
H 4.3158 -3.0617 -2.0758
H -0.8957 2.6002 0.2346
H -3.0595 1.4180 0.1354
H -3.1370 -1.0473 -0.1150
H -1.0248 -2.3633 -0.2562
H 1.7383 3.0566 -0.6314
H 3.2292 2.4039 0.2002
H 2.0626 2.5881 2.4249
H 0.5902 3.2316 1.6458
H 1.8888 5.0485 0.5452
H 3.3906 4.4629 1.3795
H 0.8352 5.5269 2.7154
H 2.3969 6.4106 2.4655
H 2.3487 4.9701 3.5698
H 6.6896 -2.7861 0.3993
H 8.2537 -3.0073 -0.3960
H 5.9878 -1.8681 -1.4929
H 6.3678 -3.6581 -1.7860
H 8.0004 -2.6934 -3.4600
H 7.3104 -1.0324 -3.1785
H 5.6781 -3.4491 -4.3004
H 6.4786 -2.1762 -5.2980
H 5.1323 -1.7640 -4.3600
H 9.7890 2.7329 0.5076
H 12.0009 1.6307 0.2611
H 12.1498 -0.8081 -0.1634
H 10.1353 -2.1497 -0.3718
H 7.2190 2.9766 1.4022
H 5.7035 2.4902 0.5323
H 8.2775 3.5182 -0.8755
H 6.7634 4.4321 -0.6297
H 5.4989 2.6251 -1.8664
H 7.0333 1.7046 -2.1253
H 6.4697 4.4832 -3.2192
H 6.3950 2.8982 -4.1043
H 7.9815 3.4869 -3.4605
