106
 
P 0.9525 0.0528 -0.0704
C 0.1417 -1.4532 -1.1110
C -1.4007 -1.5788 -1.1650
C 0.5320 -1.5753 -2.6301
C 0.6717 -2.7886 -0.5480
C 0.2619 -0.2253 1.8270
C 0.6211 -1.5549 2.5668
C 0.7835 0.8651 2.7841
C -1.2926 -0.1058 2.0251
C 0.2098 1.7391 -0.9975
C -1.3406 1.8427 -1.0395
C 0.4508 3.1616 -0.3448
C 0.6848 1.8855 -2.4632
Cu 3.4125 0.0528 -0.0704
C 5.5625 0.0528 -0.0704
N 6.3107 1.2467 0.0709
C 6.0440 2.7471 0.1107
C 4.8962 3.3268 0.7285
C 3.8803 2.5371 1.3732
C 3.0829 2.2442 0.2030
C 4.4073 1.3948 2.2340
C 4.5571 4.6988 0.6672
C 5.4181 5.5988 0.1408
C 6.6275 5.1434 -0.3444
C 6.9516 3.7487 -0.4219
C 8.2304 3.4083 -1.1704
C 8.1628 3.9908 -2.5853
C 9.5031 3.8869 -0.4494
C 7.5331 0.7875 0.3675
C 7.5532 -0.5915 0.3631
N 6.3166 -1.0916 0.0835
C 5.8698 -2.5299 0.0454
C 6.4260 -3.5830 0.9081
C 7.5039 -3.4026 1.9876
C 6.9977 -3.8190 3.3690
C 8.7762 -4.2183 1.6651
C 5.9891 -4.9316 0.7612
C 5.0527 -5.3125 -0.1678
C 4.5365 -4.3774 -1.0210
C 4.9321 -3.0154 -0.9712
C 4.6215 -2.3114 -2.2936
C 4.0000 -0.9167 -2.4532
C 5.9901 -2.3647 -2.9682
H -1.8796 -0.8177 -1.7686
H -1.8969 -1.7278 -0.2089
H -1.6856 -2.4784 -1.7573
H 0.1743 -0.7888 -3.2832
H 0.0712 -2.4755 -3.0844
H 1.5504 -1.8397 -2.8794
H 0.4134 -2.9338 0.4743
H 1.7735 -2.8822 -0.6414
H 0.2029 -3.6641 -1.0504
H 1.7049 -1.7731 2.5551
H -0.0110 -2.4176 2.3023
H 0.3179 -1.5049 3.6420
H 1.8462 0.7722 2.8785
H 0.4083 0.7175 3.8301
H 0.4801 1.8874 2.5134
H -1.8853 -0.9550 1.6615
H -1.7156 0.8459 1.6799
H -1.5545 -0.1145 3.1149
H -1.7860 1.9896 -0.0406
H -1.8537 1.1041 -1.6104
H -1.6612 2.7532 -1.6083
H 0.4577 3.1500 0.7589
H -0.2780 3.9650 -0.6043
H 1.1606 3.7965 -0.9077
H 0.2235 1.1602 -3.1180
H 1.7892 1.8651 -2.5616
H 0.3269 2.8426 -2.9097
H 3.2044 3.1351 2.0466
H 3.5179 1.8733 -0.7737
H 2.7423 3.1842 -0.1029
H 2.3581 1.7067 0.7229
H 4.3542 0.4650 1.7380
H 3.7841 1.0717 3.0554
H 5.4243 1.6347 2.6057
H 3.5864 5.0665 1.0212
H 5.1314 6.6464 0.1224
H 7.2886 5.9086 -0.7126
H 8.3183 2.3257 -1.3158
H 8.0463 5.0942 -2.5702
H 7.2910 3.5592 -3.1210
H 9.0928 3.7626 -3.1381
H 9.6193 4.9894 -0.4996
H 10.3881 3.4311 -0.9451
H 9.5174 3.5664 0.6148
H 8.3642 1.4259 0.6349
H 8.4603 -1.1265 0.5841
H 7.7949 -2.3584 2.0923
H 6.7098 -4.8908 3.3980
H 6.1267 -3.1937 3.6447
H 7.8061 -3.6718 4.1175
H 8.5744 -5.3123 1.6459
H 9.5563 -4.0608 2.4427
H 9.1922 -3.9037 0.6873
H 6.3909 -5.7397 1.3602
H 4.7723 -6.3587 -0.2794
H 3.8923 -4.7735 -1.8022
H 3.9408 -2.9479 -2.9212
H 4.6133 -0.0909 -2.1508
H 2.9797 -0.8436 -2.1309
H 3.9421 -0.7902 -3.5659
H 6.7391 -1.8828 -2.3082
H 6.0319 -1.8365 -3.9300
H 6.2630 -3.4404 -3.1142
