24
 
N -0.6590 -1.2280 -0.0510
C 0.6773 -1.0977 -0.2470
Cl 1.6011 -2.4981 -0.7473
C 1.3006 0.1337 -0.0055
C 0.5285 1.2160 0.4297
C -0.8471 1.0597 0.6091
C -1.4278 -0.1849 0.3599
Cu -1.5756 -3.1044 -0.2726
N -2.4923 -4.9807 -0.4941
C -2.0731 -5.3224 0.8961
N -3.8440 -5.2312 -0.4952
C -4.0575 -6.4564 -0.8521
C -2.8764 -7.0478 -1.2962
C -1.9036 -6.0675 -1.1798
H 2.3687 0.2498 -0.1354
H 0.9939 2.1716 0.6356
H -1.4546 1.8876 0.9526
H -2.4885 -0.3325 0.5162
H -2.8756 -5.7885 1.5198
H -1.1504 -5.9460 1.0133
H -1.8471 -4.3795 1.4351
H -5.0238 -6.9430 -0.8103
H -2.7378 -8.0539 -1.6746
H -0.8595 -6.1638 -1.4518
