37
 
N -0.6590 -1.2280 -0.0510
C -1.4182 -0.1219 -0.1662
C -2.8741 -0.3241 -0.4106
C -0.8102 1.1437 -0.1011
C 0.5796 1.2226 0.0748
C 1.3349 0.0530 0.1924
C 0.6862 -1.1786 0.1283
Cu -1.5756 -3.1044 -0.2726
N -2.4923 -4.9807 -0.4941
C -3.8133 -5.0077 -0.8174
C -4.4652 -6.2258 -1.0185
C -3.7525 -7.4137 -0.8542
C -2.3984 -7.3629 -0.4923
C -1.6589 -8.5239 -0.2861
C -0.3226 -8.4286 0.1068
C 0.3028 -7.1667 0.2949
C 1.7247 -7.1346 0.7456
O 2.3198 -8.1894 0.9173
C 2.4832 -5.8672 1.0190
C -0.4510 -5.9856 0.0567
C -1.7788 -6.1057 -0.3255
H -3.0853 -1.4370 -0.4738
H -3.1493 0.1632 -1.3704
H -3.4542 0.1406 0.4135
H -1.3905 2.0506 -0.2075
H 1.0760 2.1842 0.1086
H 2.4101 0.0962 0.3170
H 1.2497 -2.1007 0.1964
H -4.3480 -4.0764 -0.9521
H -5.5103 -6.2475 -1.3005
H -4.2579 -8.3615 -0.9993
H -2.1186 -9.4990 -0.4137
H 0.2145 -9.3556 0.2716
H 1.8919 -4.9483 0.8746
H 3.3583 -5.8193 0.3401
H 2.8355 -5.8737 2.0714
H -0.0962 -4.9352 0.1617
