32
 
P 1.0843 0.0322 -0.0431
O -0.0978 0.8654 0.8424
C 0.4283 0.9169 2.1769
O 0.6071 0.5315 -1.6014
C 1.1961 -0.3425 -2.5378
O 0.7602 -1.4114 0.8215
C 1.3643 -2.5030 0.2002
Cu 3.5443 0.0322 -0.0431
C 5.6943 0.0322 -0.0431
N 6.4555 -0.5153 0.9182
C 5.9864 -1.1997 2.1143
C 7.7347 -0.2996 0.5506
C 7.7269 0.3855 -0.6519
N 6.4427 0.5850 -1.0105
C 5.9414 1.2561 -2.2014
H 0.1126 1.8334 2.7103
H 1.5527 0.9348 2.2608
H 0.0733 0.0346 2.7530
H 0.7379 -0.1625 -3.5317
H 0.9842 -1.4106 -2.3430
H 2.2886 -0.1588 -2.6161
H 1.2289 -3.3748 0.8739
H 2.4562 -2.3415 0.0706
H 0.8302 -2.7784 -0.7276
H 4.8752 -1.2201 2.1371
H 6.3548 -0.6695 3.0173
H 6.3647 -2.2433 2.1194
H 8.6056 -0.6151 1.1104
H 8.5902 0.7105 -1.2181
H 6.7829 1.6150 -2.8310
H 5.3150 2.1237 -1.9050
H 5.3241 0.5481 -2.7943
