21
 
N -1.3900 -0.1120 -0.0540
C -0.8106 1.1054 0.1212
C 0.5810 1.2212 0.1614
C 1.3654 0.0722 0.0306
Cl 3.1152 0.1959 0.0423
C 0.7493 -1.1729 -0.1281
C -0.6466 -1.2442 -0.1737
Cu -3.4756 -0.2017 -0.2821
O -5.5116 -0.2893 -0.5047
C -6.3186 0.7420 -0.4949
C -7.6083 0.2825 -0.6803
C -7.5188 -1.0928 -0.7914
C -6.1794 -1.4018 -0.6802
H -1.4325 1.9880 0.1923
H 1.0423 2.1943 0.2736
H 1.3441 -2.0710 -0.2348
H -1.1387 -2.1958 -0.3235
H -6.0083 1.7712 -0.3750
H -8.5102 0.8775 -0.7295
H -8.3340 -1.7889 -0.9375
H -5.7362 -2.3881 -0.7167
