32
 
N -1.3923 -0.2102 -0.1513
C -0.7384 0.4337 0.8637
C 0.6509 0.6508 0.7924
Cl 1.4989 1.6000 2.0055
C 1.3727 0.1120 -0.2660
C 0.7117 -0.6416 -1.2320
C -0.6853 -0.7529 -1.1845
Cu -3.4301 -0.2583 -0.2906
P -5.8020 -0.3421 -0.5171
N -6.6972 1.2236 -0.6619
C -6.2829 2.0560 -1.8489
C -8.1222 1.0119 -0.6902
O -6.2488 -1.0382 -2.0107
C -5.8344 -2.3839 -2.0232
O -6.5452 -0.8702 0.9581
C -6.1470 -0.1809 2.0977
H -1.2800 0.8250 1.7051
H 2.4428 0.2767 -0.3319
H 1.2793 -1.0985 -2.0294
H -1.2051 -1.2489 -1.9943
H -5.1720 2.2091 -1.9231
H -6.8019 3.0459 -1.8633
H -6.6838 1.6756 -2.8033
H -8.4055 0.5257 0.2529
H -8.3907 0.3695 -1.5457
H -8.6673 1.9758 -0.7608
H -6.2126 -2.8525 -2.9630
H -6.2548 -2.9844 -1.1795
H -4.7270 -2.4207 -2.0660
H -6.7021 -0.5588 2.9831
H -6.2579 0.9133 1.9915
H -5.1672 -0.5004 2.4218
