32
 
N -1.4016 -0.0996 -0.0637
C -0.6564 -1.1726 0.4723
C 0.6694 -0.9794 0.8830
C 1.3139 0.1047 0.5204
C 2.7407 0.3219 0.9742
C 0.6732 1.0515 -0.2852
C -0.7283 1.0060 -0.4478
Cu -3.4720 -0.2056 -0.2842
N -5.5576 -0.2821 -0.5090
C -6.1911 0.7558 -1.0444
C -5.4266 1.9856 -1.4876
C -7.5704 0.6774 -1.1856
C -8.1302 -0.6134 -1.2331
C -7.5278 -1.5815 -0.4422
C -6.2610 -1.4028 -0.0842
C -5.5777 -2.4395 0.7787
H -1.0938 -2.1099 0.5701
H 1.1473 -1.6844 1.4706
H 3.0599 -0.5037 1.5812
H 2.7995 1.2268 1.5498
H 3.3816 0.4032 0.1192
H 1.2301 1.7879 -0.7569
H -1.2394 1.8141 -0.8499
H -4.3787 1.8491 -1.2973
H -5.7784 2.8431 -0.9498
H -5.5769 2.1410 -2.5405
H -8.1565 1.5304 -1.2595
H -8.9568 -0.8304 -1.8237
H -8.0466 -2.4230 -0.1340
H -6.2622 -3.2343 1.0070
H -5.2507 -1.9815 1.6932
H -4.7297 -2.8394 0.2592
