26
 
N -0.6590 -1.2280 -0.0510
C -1.4108 -0.0958 -0.0633
F -2.7574 -0.1842 -0.1857
C -0.7868 1.1556 -0.0099
C 0.6067 1.2214 0.0808
C 1.3561 0.0440 0.1156
C 0.6968 -1.1840 0.0386
Cu -1.5756 -3.1044 -0.2726
N -2.4923 -4.9807 -0.4941
C -1.7147 -6.0892 -0.4203
N -2.2473 -7.3112 -0.6632
C -3.5519 -7.4492 -1.0259
O -4.0579 -8.6700 -1.3210
C -3.3144 -9.8317 -1.2586
C -4.3658 -6.3135 -1.1127
C -3.8097 -5.0673 -0.8079
H -1.3725 2.0646 -0.0525
H 1.1059 2.1811 0.1174
H 2.4357 0.0812 0.1864
H 1.2611 -2.1074 0.0453
H -0.6710 -5.9967 -0.1532
H -3.9480 -10.6934 -1.5506
H -2.9465 -9.9915 -0.2223
H -2.4479 -9.7745 -1.9534
H -5.3972 -6.3905 -1.4339
H -4.3977 -4.1643 -0.9107
