31
 
N -1.4008 -0.1006 -0.0547
C -0.6215 -1.2183 0.0334
C 0.7008 -1.1737 0.4764
F 1.3971 -2.2704 0.8202
C 1.3064 0.0357 0.5531
C 0.6093 1.1634 0.1775
C -0.7720 1.1135 0.0206
Cu -3.4759 -0.1979 -0.2833
N -5.5483 -0.3295 -0.5040
C -6.2174 -1.5147 -0.4996
C -7.5316 -1.6200 -0.9287
C -8.2896 -0.4953 -1.1102
N -9.6410 -0.5901 -1.5652
C -10.4635 -1.7500 -1.2784
C -10.2067 0.4844 -2.3583
C -7.6664 0.7206 -0.8226
C -6.2866 0.8092 -0.6668
H -1.0199 -2.1785 -0.2016
H 2.3097 0.0750 0.8801
H 1.1350 2.0711 0.0496
H -1.3454 2.0077 -0.0557
H -5.7334 -2.4113 -0.1919
H -7.9680 -2.5528 -1.1222
H -9.9340 -2.4815 -0.6794
H -10.7856 -2.2492 -2.1876
H -11.3446 -1.4599 -0.7023
H -9.4807 1.2795 -2.5203
H -11.0710 0.9176 -1.8630
H -10.5118 0.1275 -3.3475
H -8.2617 1.5883 -0.7476
H -5.8049 1.7630 -0.6630
