32
 
N -0.6428 -1.2155 -0.0438
C 0.6944 -1.1333 0.0022
Cl 1.6555 -2.5857 -0.1747
C 1.2985 0.1062 0.2570
C 0.4928 1.2335 0.4461
C -0.8952 1.1146 0.3653
C -1.4574 -0.1387 0.1132
Cu -1.5763 -3.1042 -0.2707
P -2.6490 -5.3024 -0.5330
N -3.7295 -5.7532 0.8081
C -4.8880 -4.9230 1.1346
C -4.1125 -7.1585 0.5868
O -3.9494 -5.3025 -1.6472
C -3.5962 -4.9309 -2.9325
O -1.3839 -6.4558 -0.4227
C -0.4376 -6.2212 -1.4528
H 2.3746 0.1957 0.3295
H 0.9397 2.1959 0.6632
H -1.5290 1.9802 0.5132
H -2.5325 -0.2518 0.0686
H -4.6022 -3.8581 1.2242
H -5.2866 -5.2584 2.1162
H -5.7312 -5.0824 0.4512
H -3.2058 -7.7999 0.4834
H -4.7105 -7.2635 -0.3458
H -4.7029 -7.5594 1.4348
H -4.4247 -5.2911 -3.5870
H -2.6672 -5.4220 -3.2870
H -3.5984 -3.8276 -2.9782
H 0.5502 -6.6272 -1.1626
H -0.2820 -5.1459 -1.7125
H -0.6783 -6.8220 -2.3394
