27
 
N -1.3907 -0.1223 -0.0617
C -0.5578 -1.0707 -0.6662
C 0.7855 -1.1977 -0.2853
Cl 1.7494 -2.6062 -0.7539
C 1.3317 -0.2370 0.4452
C 0.5786 0.8766 0.8031
C -0.8201 0.8528 0.6728
Cu -3.4749 -0.2007 -0.2819
N -5.5574 -0.3046 -0.5096
C -6.2328 -1.5295 -0.5064
C -7.5545 -1.6176 -0.9405
C -8.2753 -0.5108 -1.1081
O -9.5913 -0.5984 -1.5583
C -10.1849 -1.8416 -1.8512
C -7.6757 0.7207 -0.8197
C -6.2828 0.8227 -0.6612
H -0.9324 -1.7089 -1.4080
H 2.3241 -0.3268 0.7357
H 1.0562 1.7227 1.1796
H -1.4130 1.5756 1.1332
H -5.7497 -2.3982 -0.1708
H -7.9973 -2.5348 -1.1401
H -11.1961 -1.7096 -2.1859
H -10.1847 -2.4596 -0.9659
H -9.6210 -2.3430 -2.6235
H -8.2758 1.5678 -0.7324
H -5.8094 1.7512 -0.6766
