20
 
N -1.3900 -0.1120 -0.0540
C -0.7987 1.1126 -0.0295
C 0.5952 1.2179 -0.0028
F 1.1924 2.4347 -0.0400
C 1.3671 0.0549 0.0374
C 0.7394 -1.1930 0.0463
C -0.6564 -1.2569 -0.0179
Cu -3.4756 -0.2017 -0.2821
O -5.5116 -0.2893 -0.5047
C -6.2398 -1.3747 -0.5636
N -7.5471 -1.0659 -0.6958
C -7.5722 0.2841 -0.7360
C -6.2861 0.7568 -0.6028
H -1.4105 2.0026 -0.0980
H 2.4478 0.1196 0.0541
H 1.3293 -2.0996 0.0851
H -1.1577 -2.2156 -0.0263
H -5.8556 -2.3807 -0.4629
H -8.4651 0.8822 -0.8613
H -5.9516 1.7860 -0.6178
