32
 
N -1.3896 -0.1366 -0.0688
C -0.6543 0.9939 -0.3696
C 0.7321 0.9372 -0.5130
C 1.3852 -0.1446 -0.0869
F 2.7116 -0.2057 -0.2263
C 0.6716 -1.1818 0.4972
C -0.7216 -1.2377 0.3643
Cu -3.4698 -0.2081 -0.2870
N -5.5461 -0.2825 -0.5043
C -6.1780 -1.5084 -0.5677
C -5.3976 -2.7830 -0.4936
C -7.5213 -1.5838 -0.7252
C -8.2785 -0.4733 -0.8017
C -9.7582 -0.6086 -0.9573
C -7.6809 0.7681 -0.7358
C -6.2971 0.8712 -0.5993
C -5.6411 2.2233 -0.5236
H -1.1380 1.9163 -0.5139
H 1.2764 1.7212 -0.9349
H 1.1871 -1.9293 1.0180
H -1.2485 -2.1170 0.6063
H -4.3476 -2.5509 -0.3778
H -5.5328 -3.3689 -1.3947
H -5.7244 -3.3704 0.3548
H -7.9788 -2.5113 -0.7814
H -10.0428 -1.6525 -0.9902
H -10.0752 -0.1318 -1.8737
H -10.2586 -0.1373 -0.1233
H -8.2765 1.6265 -0.7952
H -6.3814 3.0103 -0.6024
H -4.9328 2.3292 -1.3333
H -5.1175 2.3324 0.4166
