40
 
N -0.6778 -1.2307 -0.0734
C 0.6753 -1.1461 0.1624
Cl 1.6303 -2.6159 0.1756
C 1.2744 0.0992 0.4097
C 0.4724 1.2432 0.4505
C -0.8981 1.1368 0.2128
C -1.4516 -0.1176 -0.0575
Cu -1.5690 -3.1037 -0.2812
P -2.6374 -5.2989 -0.5286
N -3.7771 -5.7499 0.8171
C -3.3583 -5.8695 2.2334
C -4.9391 -4.8314 0.7966
N -3.8809 -5.1306 -1.8266
C -3.4104 -4.7435 -3.1813
C -4.9306 -6.1309 -1.8761
N -1.3319 -6.5480 -0.5283
C -1.7296 -7.9483 -0.6854
C -0.1254 -6.2758 -1.3497
H 2.3388 0.1821 0.5886
H 0.9081 2.2099 0.6720
H -1.5287 2.0166 0.2499
H -2.5119 -0.2179 -0.2299
H -2.7240 -6.7284 2.4212
H -4.2506 -6.1235 2.8467
H -3.0102 -4.9328 2.6766
H -5.3245 -4.6223 -0.2171
H -4.7250 -3.8681 1.2612
H -5.7778 -5.2177 1.4085
H -2.7609 -3.8633 -3.1837
H -4.2512 -4.4079 -3.8176
H -2.9634 -5.5572 -3.7567
H -5.4453 -6.1854 -0.9111
H -4.5061 -7.1014 -2.1562
H -5.6803 -5.7963 -2.6288
H -2.5857 -8.1830 -0.0251
H -0.8672 -8.5937 -0.4049
H -1.8924 -8.2172 -1.7390
H 0.3817 -5.3454 -1.0850
H -0.2949 -6.3487 -2.4285
H 0.6621 -7.0311 -1.1564
