28
 
N -1.3900 -0.1120 -0.0540
C -0.8086 1.1067 -0.0507
C 0.5773 1.2244 -0.0429
C 1.4021 0.0684 -0.0509
N 2.8511 0.1637 -0.1554
C 3.5669 1.4339 -0.2514
C 3.7228 -1.0025 -0.2617
C 0.7310 -1.1854 -0.0001
C -0.6622 -1.2487 -0.0047
Cu -3.4756 -0.2017 -0.2821
O -5.5116 -0.2893 -0.5047
C -6.2385 -1.3764 -0.5442
N -7.5447 -1.0725 -0.6948
C -7.5730 0.2770 -0.7448
C -6.2867 0.7541 -0.6246
H -1.4316 1.9913 -0.0906
H 0.9423 2.2330 -0.0682
H 2.9497 2.3385 -0.1970
H 4.1023 1.4823 -1.2242
H 4.3092 1.5095 0.5699
H 3.2230 -1.9775 -0.2231
H 4.4679 -0.9906 0.5605
H 4.2597 -0.9713 -1.2342
H 1.2255 -2.1377 0.0097
H -1.1670 -2.2062 -0.0131
H -5.8486 -2.3821 -0.4667
H -8.4694 0.8718 -0.8592
H -5.9572 1.7847 -0.6232
