24
 
N -1.3900 -0.1120 -0.0540
C -0.8006 1.1062 -0.1152
C 0.5821 1.2173 -0.0631
C 1.3714 0.0546 0.0052
O 2.7288 0.1115 -0.0078
C 3.4589 1.2784 -0.1357
C 0.7331 -1.1942 0.0726
C -0.6662 -1.2551 0.0669
Cu -3.4756 -0.2017 -0.2821
O -5.5116 -0.2893 -0.5047
C -6.2490 -1.3691 -0.4592
N -7.5526 -1.0651 -0.6305
C -7.5696 0.2783 -0.7698
C -6.2772 0.7494 -0.7016
H -1.4133 1.9941 -0.1931
H 1.0208 2.2038 -0.1003
H 4.5423 1.0494 -0.1211
H 3.2291 1.9634 0.7084
H 3.2149 1.7798 -1.0990
H 1.3107 -2.1104 0.1049
H -1.1742 -2.2112 0.0769
H -5.8650 -2.3726 -0.3363
H -8.4634 0.8738 -0.9000
H -5.9408 1.7766 -0.7523
