48
 
N -0.6790 1.1930 0.0010
C -1.0766 0.2735 -0.9046
C -2.1550 0.6624 -1.8593
C -0.4244 -0.9656 -0.9756
C 0.6153 -1.2475 -0.0743
C 1.3262 -2.5698 -0.1052
C 0.9890 -0.2771 0.8672
C 0.3308 0.9622 0.8799
C 0.6526 2.0064 1.9031
Cu -1.6914 3.0329 0.0055
P -2.8773 5.1881 0.0107
C -2.5458 6.4418 1.2796
C -2.2260 5.9715 -1.4666
C -3.1207 6.4653 -2.4385
C -2.6438 6.9846 -3.6413
C -1.2717 7.0056 -3.8885
C -0.3776 6.5442 -2.9146
C -0.8526 6.0383 -1.6985
C -4.6308 4.8231 -0.0151
C -5.0952 3.5049 0.0562
C -6.4710 3.2489 -0.0144
C -7.3783 4.3068 -0.1511
C -6.9152 5.6235 -0.1927
C -5.5469 5.8809 -0.1179
H -2.5165 1.7025 -1.6199
H -2.9917 -0.0613 -1.7957
H -1.7378 0.6435 -2.8911
H -0.7184 -1.6943 -1.7212
H 0.9390 -3.2223 -0.9165
H 1.1846 -3.0946 0.8633
H 2.4121 -2.4095 -0.2742
H 1.7760 -0.4891 1.5821
H 1.4527 1.6621 2.5946
H -0.2580 2.2104 2.5080
H 0.9652 2.9463 1.4084
H -1.4522 6.6344 1.3280
H -2.7979 5.9408 2.2481
H -3.1350 7.3660 1.1935
H -4.1904 6.4464 -2.2880
H -3.3402 7.3505 -4.3877
H -0.9043 7.3757 -4.8362
H 0.6843 6.5609 -3.1099
H -0.1594 5.6640 -0.9583
H -4.3972 2.6822 0.1534
H -6.8357 2.2315 0.0267
H -8.4396 4.1095 -0.2234
H -7.6125 6.4458 -0.2915
H -5.2002 6.9065 -0.1546
