37
 
N -1.3971 -0.0924 -0.0657
C -0.7148 1.1159 -0.0958
C 0.6754 1.1576 -0.2593
C 1.3994 0.0448 -0.0872
O 2.7754 0.0672 -0.2442
C 3.4360 1.2552 -0.5878
C 0.7185 -1.1303 0.2570
C -0.6707 -1.2266 0.1057
Cu -3.4764 -0.2046 -0.2834
N -5.5607 -0.2936 -0.5101
C -6.3463 0.7404 -0.6695
C -5.8475 2.1762 -0.7373
C -4.4773 2.4971 -0.6336
C -4.0651 3.8073 -0.4138
C -4.9330 4.8003 -0.5774
C -6.2311 4.5132 -0.9772
C -6.7208 3.2049 -0.9093
N -7.7483 0.3183 -0.8138
C -7.7303 -1.1539 -1.0940
C -6.3590 -1.5556 -0.5107
H -1.2396 2.0223 -0.0369
H 1.1732 2.0384 -0.5004
H 4.4989 1.0993 -0.6645
H 3.2474 2.0138 0.1617
H 3.0669 1.6144 -1.5405
H 1.2718 -1.9477 0.6036
H -1.1509 -2.1569 0.1571
H -3.7605 1.7385 -0.7105
H -3.0898 4.0296 -0.1303
H -4.6213 5.7780 -0.4110
H -6.8483 5.2870 -1.3135
H -7.7418 3.0018 -0.9912
H -8.5819 0.9164 -0.7320
H -7.7579 -1.3705 -2.1665
H -8.5663 -1.7289 -0.7083
H -5.8889 -2.3273 -1.0896
H -6.4669 -1.9709 0.4971
