30
 
N -0.6590 -1.2280 -0.0510
C -1.4266 -0.1205 0.0744
O -2.7745 -0.2411 0.1022
C -3.4354 -1.4430 -0.1008
C -0.8068 1.1381 0.1462
C 0.5913 1.2194 0.0680
C 1.3502 0.0550 -0.0628
C 0.6968 -1.1741 -0.1131
Cu -1.5756 -3.1044 -0.2726
N -2.4923 -4.9807 -0.4941
C -3.1202 -5.2564 -1.6649
N -3.8030 -6.4166 -1.8170
C -3.9383 -7.2921 -0.7845
O -4.6693 -8.4221 -0.9321
C -5.3060 -8.7618 -2.1088
C -3.3378 -7.0019 0.4454
C -2.5862 -5.8284 0.5627
H -4.5227 -1.2715 0.0037
H -3.1396 -2.1991 0.6365
H -3.2203 -1.8460 -1.1068
H -1.3915 2.0436 0.2381
H 1.0897 2.1803 0.0980
H 2.4299 0.1018 -0.1386
H 1.2614 -2.0895 -0.2372
H -3.0233 -4.5747 -2.4990
H -5.8484 -9.7192 -1.9732
H -4.5617 -8.8824 -2.9254
H -6.0387 -7.9740 -2.3898
H -3.4686 -7.6585 1.2965
H -2.1508 -5.5530 1.5143
