48
 
P 0.9396 -0.0594 0.0531
O -0.0932 -0.5149 -1.2388
C 0.4281 0.2031 -2.3689
C -0.2653 -0.1439 -3.6738
O 0.3972 -1.1016 1.2926
C 0.6550 -2.4359 0.9787
C 2.1499 -2.6854 0.8818
O 0.4604 1.5925 0.0519
C -0.9626 1.6204 0.1921
C -1.5016 3.0323 0.0889
Cu 3.3996 -0.0594 0.0531
N 5.4996 -0.0594 0.0531
C 6.1236 1.1428 0.1927
C 7.5189 1.2223 0.2092
C 8.2710 0.0556 0.1006
C 7.6216 -1.1744 -0.0200
C 8.3479 -2.3609 -0.0918
C 7.6863 -3.5797 -0.2011
C 6.2789 -3.6406 -0.2713
C 5.5498 -4.9387 -0.4173
O 4.3303 -4.9317 -0.4956
C 6.2333 -6.2813 -0.4899
C 5.5580 -2.4288 -0.2032
C 6.2131 -1.2112 -0.0587
H 1.5244 0.0374 -2.5232
H 0.2481 1.2944 -2.2561
H -0.0030 -1.1687 -4.0020
H 0.0780 0.5725 -4.4582
H -1.3618 -0.0326 -3.5617
H 0.0998 -2.7488 0.0684
H 0.2559 -3.0428 1.8205
H 2.5516 -2.0980 0.0352
H 2.3298 -3.7618 0.7104
H 2.6473 -2.3528 1.8171
H -1.2809 1.1775 1.1604
H -1.4957 1.1016 -0.6347
H -1.1185 3.6460 0.9246
H -2.6142 2.9959 0.1388
H -1.2143 3.4804 -0.8867
H 5.5317 2.0425 0.2924
H 8.0158 2.1775 0.3143
H 9.3530 0.1085 0.1180
H 9.4292 -2.3506 -0.0517
H 8.3110 -4.4514 -0.2341
H 7.3299 -6.2519 -0.3985
H 6.0033 -6.7512 -1.4674
H 5.8623 -6.9309 0.3291
H 4.4927 -2.4012 -0.2600
