24
 
N -1.3999 -0.0829 -0.0592
C -0.7349 1.1327 0.1000
C 0.6618 1.2198 -0.0485
O 1.2947 2.4659 -0.1918
C 0.5328 3.6555 -0.1896
C 1.3713 0.1108 -0.0512
C 0.7424 -1.1255 0.1041
C -0.6563 -1.2246 -0.0519
Cu -3.4689 -0.2108 -0.2830
N -5.5411 -0.3699 -0.5080
C -6.2785 -1.5116 -0.5124
O -7.5637 -1.1575 -0.6750
C -7.5974 0.1447 -0.7751
C -6.3942 0.6164 -0.6793
H -1.2777 1.9926 0.3143
H 1.1754 4.5059 -0.3105
H 0.0036 3.7422 0.7423
H -0.1779 3.6317 -0.9961
H 2.3987 0.1677 -0.1653
H 1.3061 -1.9682 0.3254
H -1.1112 -2.1529 -0.1577
H -5.9077 -2.4826 -0.4031
H -8.4464 0.7187 -0.9087
H -6.1411 1.6144 -0.7331
