48
 
N -1.4365 -0.3824 -0.0432
C -0.8772 -1.5829 0.2988
C 0.4745 -1.6832 0.6247
C 1.3178 -0.5637 0.5321
N 2.7020 -0.6105 0.9692
C 3.3203 -1.8126 1.5383
C 3.5517 0.5767 0.9558
C 0.7261 0.6160 0.0127
C -0.6478 0.6982 -0.2156
Cu -3.4548 -0.2682 -0.2698
P -5.8704 -0.2047 -0.5164
N -6.7124 1.3363 -0.7721
C -6.5502 2.3816 0.2638
C -6.2380 1.9032 -2.0441
N -6.2260 -1.1826 -2.0309
C -5.7785 -2.6066 -2.0143
C -7.6564 -1.2151 -2.3277
N -6.5733 -1.0963 0.9090
C -6.2107 -0.4531 2.1642
C -8.0529 -1.2489 0.9286
H -1.4563 -2.4952 0.3393
H 0.8078 -2.6475 0.9515
H 2.6858 -2.7017 1.5937
H 3.6313 -1.6335 2.5905
H 4.1932 -2.1154 0.9290
H 3.0789 1.4838 0.5770
H 4.4303 0.4024 0.3089
H 3.8668 0.8424 1.9863
H 1.2587 1.5144 -0.1935
H -1.0862 1.6367 -0.4965
H -7.0801 2.1538 1.1581
H -7.0677 3.2910 -0.0413
H -5.5472 2.7407 0.3992
H -6.2776 1.1637 -2.8788
H -5.2447 2.3288 -1.9806
H -6.7554 2.8397 -2.2898
H -4.7218 -2.7629 -1.9644
H -5.9853 -3.1579 -2.9394
H -6.3003 -3.2448 -1.3217
H -8.0115 -0.1936 -2.5189
H -8.1987 -1.6760 -1.5278
H -7.8367 -1.8336 -3.2364
H -5.1187 -0.2987 2.2313
H -6.6373 -0.9953 3.0257
H -6.7695 0.4592 2.3173
H -8.4732 -1.9164 0.2361
H -8.6073 -0.3295 0.9843
H -8.4347 -1.7472 1.8182
