29
 
N -1.4021 -0.0905 -0.0402
C -0.5253 -0.2522 -1.0932
C 0.8553 -0.4811 -0.8966
O 1.6804 -0.9268 -1.9003
C 1.1855 -1.1780 -3.1754
C 1.3475 -0.2314 0.3394
C 0.5117 0.2358 1.3420
C -0.8765 0.1542 1.1871
Cu -3.4751 -0.2016 -0.2888
N -5.5382 -0.3058 -0.5007
C -5.9438 0.4632 -1.6930
C -5.9489 -1.7043 -0.7340
C -6.2125 0.2018 0.6702
H -0.8815 -0.2610 -2.0826
H 1.9592 -1.5311 -3.8468
H 0.7601 -0.2632 -3.5911
H 0.3953 -1.9300 -3.1330
H 2.3714 -0.3851 0.5049
H 0.9355 0.6191 2.2273
H -1.5162 0.3095 2.0192
H -5.4638 0.0909 -2.5837
H -5.6583 1.5087 -1.5515
H -7.0259 0.4275 -1.8287
H -5.4694 -2.1095 -1.6160
H -7.0309 -1.7751 -0.8605
H -5.6667 -2.3078 0.1264
H -5.9263 1.2398 0.8242
H -5.9292 -0.3756 1.5349
H -7.2944 0.1581 0.5473
