62
 
N -1.4032 -0.0999 -0.0525
C -0.5946 0.2824 -1.1108
C 0.8058 0.0919 -1.1073
O 1.5801 0.2265 -2.2285
C 1.0243 0.5580 -3.4521
C 1.3727 -0.2401 0.0849
C 0.5854 -0.3477 1.2229
C -0.8059 -0.4081 1.1144
Cu -3.4708 -0.1957 -0.2834
P -5.9026 -0.3219 -0.5192
C -6.6040 1.3722 -0.7163
C -6.0295 2.0679 -1.9206
C -8.0879 1.3767 -0.7472
C -6.1669 2.2178 0.4699
C -6.3109 -1.2570 -2.0580
C -5.7342 -2.6538 -1.9389
C -7.8032 -1.4366 -2.1964
C -5.7239 -0.6445 -3.2714
C -6.6049 -1.1185 0.9286
C -5.7606 -1.5399 1.9386
C -6.2078 -2.3283 2.9684
C -7.5415 -2.5008 3.1870
N -8.0115 -3.3131 4.2691
C -7.2515 -3.4620 5.5010
C -9.2558 -4.0460 4.1409
C -8.4032 -1.8476 2.3073
C -7.9470 -1.3266 1.1192
H -1.0102 0.7321 -1.9802
H 1.7691 0.6079 -4.2454
H 0.5353 1.5366 -3.3790
H 0.2639 -0.1797 -3.7400
H 2.4173 -0.3899 0.1192
H 1.0544 -0.4190 2.1680
H -1.4010 -0.7059 1.9415
H -6.3733 1.7070 -2.7552
H -4.9486 2.0705 -1.9255
H -6.4316 3.0480 -2.0694
H -8.4428 0.9953 -1.5723
H -8.5026 2.3492 -0.8810
H -8.5187 0.8797 0.0907
H -5.0869 2.2600 0.5487
H -6.4993 1.8447 1.3883
H -6.5695 3.2265 0.3952
H -6.1628 -3.1778 -1.1006
H -4.6531 -2.5987 -1.8281
H -5.9744 -3.2436 -2.8233
H -8.2557 -1.8734 -1.3199
H -8.0779 -1.9622 -3.0856
H -8.2588 -0.6014 -2.4324
H -4.6615 -0.5025 -3.1715
H -6.1628 0.1850 -3.5201
H -5.9835 -1.1647 -4.1675
H -4.7447 -1.2662 1.9289
H -5.5075 -2.7591 3.5881
H -6.3446 -2.9017 5.5169
H -6.9572 -4.4952 5.6667
H -7.8273 -3.1063 6.3517
H -9.7292 -3.8885 3.1916
H -9.9647 -3.7329 4.9024
H -9.0930 -5.1209 4.2191
H -9.4208 -1.7604 2.5153
H -8.6465 -1.0853 0.4162
