77
 
O -0.3280 -1.0820 0.0030
C -0.7375 -0.1195 0.8194
C -0.1158 1.0650 0.4657
C 0.7334 0.7606 -0.5740
C 0.5695 -0.5893 -0.8286
Cu -0.9157 -3.0459 0.0160
C -1.5321 -5.1056 0.0297
N -2.7431 -5.4909 -0.3821
C -3.9138 -4.6783 -1.0158
C -4.9005 -5.1672 -2.0555
C -4.9561 -6.4425 -2.9081
C -4.2806 -6.3009 -4.2957
C -4.3475 -7.5405 -2.2148
C -6.0092 -4.3760 -2.4767
C -6.2252 -3.1118 -2.0644
C -5.3029 -2.5488 -1.2963
C -4.1940 -3.2467 -0.7648
C -3.4131 -2.2681 -0.0182
C -2.6389 -1.4874 -1.1870
C -4.2667 -1.5002 1.0791
C -2.7502 -6.8933 0.1073
C -1.3084 -7.3166 0.0682
N -0.6287 -6.1741 0.5422
C 0.5328 -6.2174 1.5081
C 1.5791 -5.2069 1.5302
C 1.7588 -4.0559 0.5709
C 1.8898 -2.7497 1.4192
C 3.0661 -4.3853 -0.2179
C 2.6772 -5.2868 2.4446
C 2.8250 -6.2541 3.3501
C 1.9364 -7.2543 3.3518
C 0.8074 -7.3357 2.4722
C 0.0568 -8.6770 2.6802
C 0.7656 -9.7751 1.8396
C 0.0505 -9.1503 4.1605
H -1.4752 -0.2227 1.5984
H -0.2602 2.0451 0.9058
H 1.3905 1.4543 -1.0860
H 1.0943 -1.1484 -1.5900
H -6.0142 -6.7708 -3.0546
H -3.2347 -5.9333 -4.1946
H -4.8352 -5.6294 -4.9805
H -4.2274 -7.3050 -4.7783
H -3.2754 -7.2456 -2.2503
H -4.4320 -8.5200 -2.7019
H -4.8985 -7.5668 -1.2391
H -6.7513 -4.7234 -3.1813
H -7.0736 -2.5191 -2.3841
H -5.4902 -1.4973 -1.1319
H -2.8696 -2.8757 0.6217
H -3.0881 -0.9676 -2.0565
H -1.9185 -2.1906 -1.6968
H -2.2276 -0.5491 -0.8793
H -5.1834 -0.9763 0.7746
H -3.6832 -0.7700 1.6763
H -4.7344 -2.2342 1.7738
H -3.1218 -7.7945 -0.3450
H -3.1545 -6.9022 1.1358
H -0.9987 -7.4420 -1.0006
H -1.1109 -8.2830 0.5106
H 0.9395 -3.9449 -0.2066
H 2.4350 -2.8379 2.3871
H 0.8932 -2.4125 1.7537
H 2.4591 -1.9756 0.8776
H 3.9781 -4.3251 0.4132
H 3.2451 -3.7102 -1.0722
H 3.0182 -5.4321 -0.6076
H 3.5020 -4.5896 2.4761
H 3.6712 -6.2498 4.0346
H 2.2283 -7.9660 4.0924
H -1.0222 -8.5839 2.4788
H 1.8592 -9.7949 2.0584
H 0.6644 -9.6068 0.7481
H 0.3722 -10.7877 2.0719
H 1.0476 -9.4924 4.4895
H -0.5424 -10.0653 4.3403
H -0.3172 -8.3219 4.8055
