52
 
P 1.0499 -0.0659 -0.0563
C 0.1664 -0.0486 -1.7318
C 0.4854 1.1879 -2.5992
C 0.1335 0.7349 -4.0193
C 0.7073 -0.6594 -4.1149
C 0.7413 -1.1538 -2.6655
C 0.5538 -1.7052 0.6500
C 1.0174 -2.9648 -0.0641
C 0.7241 -4.0321 0.9675
C 1.2307 -3.4204 2.2592
C 1.0735 -1.9026 2.0782
C 0.5796 1.4733 0.8679
C 1.1888 1.5027 2.2676
C 0.9264 2.9338 2.7035
C 1.2839 3.7436 1.4664
C 1.0138 2.8134 0.2666
Cu 3.5099 -0.0659 -0.0563
N 5.6099 -0.0659 -0.0563
C 6.4415 0.7963 -0.6609
O 7.6972 0.4748 -0.4299
C 7.6964 -0.6021 0.3292
C 6.3882 -0.9549 0.5732
H -0.9389 -0.1421 -1.6637
H 1.5763 1.4088 -2.5702
H -0.0943 2.0904 -2.3250
H 0.4864 1.3967 -4.8434
H -0.9705 0.6406 -4.0882
H 1.7563 -0.6260 -4.4930
H 0.1273 -1.3029 -4.8169
H 1.8252 -1.2685 -2.4295
H 0.2324 -2.1230 -2.6125
H -0.5612 -1.7524 0.7029
H 2.1050 -2.8974 -0.2754
H 0.4399 -3.2284 -0.9577
H 1.1656 -5.0228 0.7257
H -0.3820 -4.1439 1.0398
H 2.3206 -3.6298 2.3245
H 0.7239 -3.8460 3.1519
H 2.0877 -1.4560 2.1780
H 0.3897 -1.4435 2.8244
H -0.5286 1.5088 0.9998
H 2.2826 1.3221 2.1983
H 0.7335 0.7750 2.9713
H 1.4770 3.2514 3.6179
H -0.1639 3.0441 2.8923
H 2.3779 3.9460 1.4865
H 0.7501 4.7189 1.4355
H 1.9733 2.6909 -0.2788
H 0.2234 3.2242 -0.3955
H 6.1211 1.6407 -1.2556
H 8.5794 -1.1110 0.6923
H 6.0271 -1.7887 1.1608
