61
 
P 1.0700 0.0512 -0.0498
C 0.2395 -1.5687 -0.4035
C 0.6252 -2.1172 -1.7901
C 0.2970 -3.6023 -1.6600
C 0.8812 -3.9719 -0.3098
C 0.8299 -2.6746 0.5058
C 0.6442 0.5358 1.6914
C 1.1498 -0.3853 2.7774
C 0.9723 0.4652 4.0234
C 1.4572 1.8429 3.6069
C 1.2628 1.8839 2.0903
C 0.4852 1.1770 -1.3939
C -1.0427 1.3164 -1.3645
C -1.2843 2.6175 -2.1154
C -0.2354 3.5373 -1.5173
C 0.9806 2.6363 -1.2378
Cu 3.5300 0.0512 -0.0498
C 5.6800 0.0512 -0.0498
N 6.3804 0.4951 0.9212
C 5.8266 1.1229 2.0946
C 7.7960 0.3525 0.6531
C 7.8322 -0.5678 -0.5772
N 6.4889 -0.4634 -1.0798
C 6.0561 -0.8617 -2.3968
H -0.8686 -1.5511 -0.3267
H 1.7239 -2.0183 -1.9570
H 0.0878 -1.6334 -2.6330
H 0.6748 -4.2522 -2.4818
H -0.8063 -3.7093 -1.5987
H 1.9546 -4.2448 -0.4459
H 0.3720 -4.8385 0.1659
H 1.8973 -2.4354 0.7328
H 0.2821 -2.8083 1.4519
H -0.4630 0.6339 1.8051
H 2.2237 -0.5958 2.5960
H 0.5604 -1.3109 2.8776
H 1.4818 0.0661 4.9247
H -0.1198 0.5389 4.2304
H 2.5488 1.9299 3.7999
H 0.9317 2.6504 4.1640
H 2.2845 1.9345 1.6462
H 0.6548 2.7613 1.7780
H 0.7761 0.8335 -2.4110
H -1.3928 1.4554 -0.3173
H -1.5780 0.4481 -1.8069
H -2.3206 3.0132 -2.0024
H -1.0627 2.4667 -3.1907
H -0.6386 3.8721 -0.5313
H -0.0164 4.4502 -2.1120
H 1.3215 2.9061 -0.2326
H 1.8540 2.8244 -1.8930
H 4.7064 1.1161 2.0491
H 6.1981 2.1698 2.1574
H 6.1692 0.5758 2.9986
H 8.3731 -0.0890 1.4931
H 8.1906 1.3618 0.3990
H 7.9650 -1.6264 -0.2540
H 8.6262 -0.2826 -1.2983
H 6.9211 -1.2474 -2.9811
H 5.6589 0.0291 -2.9297
H 5.2730 -1.6419 -2.3361
