55
 
P 0.9644 -0.0865 0.0355
C 0.2174 1.5172 0.6104
C 0.6836 1.8574 2.0336
C 0.4080 3.3544 2.1266
C 0.9492 3.8937 0.8186
C 0.8121 2.7278 -0.1619
C 0.4738 -0.2465 -1.7581
C 0.9640 0.8539 -2.6720
C 0.7236 0.2848 -4.0510
C 1.2488 -1.1291 -3.9217
C 1.0071 -1.5167 -2.4513
C 0.4355 -1.3630 1.2671
C -1.0898 -1.5143 1.3366
C -1.2521 -2.8718 2.0050
C -0.2394 -3.7382 1.2751
C 0.8873 -2.7766 0.8539
Cu 3.4244 -0.0865 0.0355
N 5.5244 -0.0865 0.0355
C 6.2051 1.0906 0.0139
Cl 5.3218 2.6023 0.0749
C 7.6018 1.0889 -0.0841
C 8.2795 -0.1304 -0.1645
C 7.5607 -1.3264 -0.1369
C 6.1688 -1.2823 -0.0355
H -0.8927 1.5517 0.5716
H 1.7848 1.7011 2.1233
H 0.1674 1.2743 2.8236
H 0.8420 3.8707 3.0115
H -0.6927 3.5009 2.1281
H 2.0357 4.1256 0.9244
H 0.4322 4.8243 0.4950
H 1.8539 2.4882 -0.4884
H 0.2031 3.0517 -1.0193
H -0.6415 -0.2819 -1.8388
H 2.0507 0.9960 -2.4980
H 0.3972 1.7869 -2.5887
H 1.2167 0.8769 -4.8521
H -0.3732 0.2541 -4.2421
H 2.3509 -1.0746 -4.0639
H 0.8314 -1.8221 -4.6843
H 2.0003 -1.7881 -2.0310
H 0.3052 -2.3755 -2.3492
H 0.8096 -1.1593 2.2954
H -1.5158 -1.5749 0.3104
H -1.6020 -0.7059 1.9020
H -2.2870 -3.2830 1.9691
H -0.9370 -2.7825 3.0657
H -0.7306 -4.1085 0.3428
H 0.0861 -4.6230 1.8620
H 0.9255 -2.8648 -0.2439
H 1.8988 -3.0321 1.2298
H 8.1553 2.0186 -0.1133
H 9.3579 -0.1495 -0.2563
H 8.0741 -2.2768 -0.2080
H 5.5962 -2.2003 -0.0345
