28
 
P 1.0813 0.0048 -0.0581
N 0.3139 -0.5581 1.4378
C -1.1384 -0.6373 1.5149
C 0.9717 -1.8183 1.8336
O 0.5740 1.6306 -0.0172
C 0.9882 2.2305 -1.2270
O 0.7228 -1.3385 -1.0502
C 1.1122 -1.0237 -2.3716
Cu 3.5413 0.0048 -0.0581
C 5.6913 0.0048 -0.0581
N 6.4387 -0.5195 0.9314
C 7.7035 -0.2994 0.5317
C 7.6754 0.3470 -0.6837
O 6.4204 0.5223 -1.0201
H -1.5946 0.3164 1.1894
H -1.4066 -0.7708 2.5910
H -1.5345 -1.5073 0.9546
H 2.0797 -1.6789 1.8754
H 0.7563 -2.6348 1.1084
H 0.6458 -2.1455 2.8423
H 0.4944 3.2190 -1.3285
H 0.6736 1.6714 -2.1366
H 2.0864 2.3970 -1.2237
H 1.2506 -1.9689 -2.9349
H 2.0934 -0.4930 -2.4289
H 0.3172 -0.4543 -2.9031
H 8.5847 -0.5897 1.0879
H 8.5269 0.6630 -1.2713
