28
 
O -0.3280 -1.0820 0.0030
C -1.1152 -0.0405 -0.0821
N -0.3977 1.1024 -0.0761
C 0.8859 0.6938 0.0244
C 0.9127 -0.6823 0.0709
Cu -0.9157 -3.0459 0.0160
N -1.5178 -5.0577 0.0293
C -0.7488 -6.1538 0.0585
N -1.5080 -7.2750 0.0444
C -1.0531 -8.6456 -0.0036
C 0.3227 -8.9502 -0.0657
C 0.7521 -10.2733 -0.1912
C -0.1793 -11.3105 -0.2501
C -1.5424 -11.0285 -0.1683
C -1.9787 -9.7093 -0.0444
C -2.7923 -6.8425 0.0295
C -2.7917 -5.4700 0.0128
H -2.1925 -0.0870 -0.1642
H 1.7426 1.3536 0.0609
H 1.7770 -1.3279 0.1541
H 0.3306 -6.1153 0.0708
H 1.0748 -8.1760 -0.0382
H 1.8098 -10.4916 -0.2557
H 0.1544 -12.3328 -0.3622
H -2.2672 -11.8307 -0.2135
H -3.0429 -9.5361 0.0018
H -3.6791 -7.4581 0.0130
H -3.6529 -4.8160 -0.0125
