54
 
P 1.0756 0.0411 -0.0510
C 0.2053 0.2115 1.5438
C -1.1751 0.4226 1.6807
C -1.7405 0.6286 2.9480
C -0.9411 0.6188 4.0937
C 0.4317 0.4100 3.9772
C 1.0031 0.2155 2.7123
C 0.7543 1.4744 -1.1112
C 1.8472 2.1701 -1.6522
C 1.6084 3.2638 -2.5200
C 0.2971 3.6552 -2.8388
C -0.7843 2.9574 -2.3059
C -0.5599 1.8696 -1.4542
C 0.6633 -1.7080 -0.3272
C -0.6810 -2.1066 -0.5026
C -1.0036 -3.4423 -0.7769
C 0.0093 -4.3935 -0.8965
C 1.3458 -4.0050 -0.7637
C 1.6741 -2.6680 -0.4843
Cu 3.5356 0.0411 -0.0510
N 5.6356 0.0411 -0.0510
C 6.2706 -0.7943 0.7987
C 7.6528 -0.7253 0.9467
C 8.4156 0.2124 0.1998
N 9.8469 0.3765 0.4090
C 10.6051 -0.3834 1.4000
C 10.6469 1.3784 -0.2899
C 7.6955 1.0144 -0.7283
C 6.3089 0.9185 -0.8253
H -1.8213 0.4570 0.8264
H -2.8027 0.8074 3.0432
H -1.3839 0.7808 5.0703
H 1.0509 0.4108 4.8685
H 2.0769 0.0750 2.6525
H 2.8688 1.8274 -1.3978
H 2.4274 3.8158 -2.9614
H 0.1100 4.4929 -3.5062
H -1.7979 3.2561 -2.5622
H -1.4251 1.3463 -1.0855
H -1.4879 -1.3909 -0.4486
H -2.0380 -3.7419 -0.9075
H -0.2415 -5.4276 -1.1069
H 2.1264 -4.7441 -0.8866
H 2.7142 -2.3804 -0.4104
H 5.6889 -1.4771 1.4052
H 8.0610 -1.3970 1.6775
H 10.0381 -1.1305 1.9680
H 11.0327 0.3155 2.1511
H 11.4354 -0.9258 0.9025
H 10.1116 1.9902 -1.0252
H 11.4784 0.8831 -0.8323
H 11.0724 2.0899 0.4502
H 8.1411 1.7500 -1.3696
H 5.7608 1.5637 -1.5000
