69
 
P 1.0383 0.0732 0.0564
C 0.2593 -0.7715 -1.3390
C -1.1176 -0.9231 -1.5313
C -1.5954 -1.6517 -2.6259
C -0.7079 -2.2325 -3.5367
C 0.6651 -2.0466 -3.3840
C 1.1466 -1.3109 -2.2979
C 0.5888 -1.1776 1.2780
C 0.9467 -2.5259 1.1965
C 0.5073 -3.4220 2.1860
C -0.2733 -2.9743 3.2606
C -0.6109 -1.6269 3.3598
C -0.1844 -0.7359 2.3754
C 0.4613 1.7642 0.2362
C -0.9201 2.0139 0.3454
C -1.4020 3.3077 0.5183
C -0.5062 4.3703 0.6051
C 0.8744 4.1308 0.5311
C 1.3638 2.8249 0.3456
Cu 3.4983 0.0732 0.0564
P 5.9583 0.0732 0.0564
C 6.5693 1.4024 -1.0534
C 6.2754 2.7593 -0.7940
C 6.4973 3.7439 -1.7742
C 7.0044 3.3926 -3.0277
Cl 7.1971 4.6116 -4.2815
C 7.3128 2.0592 -3.2969
C 7.0960 1.0719 -2.3231
C 6.4965 0.6755 1.6846
C 5.5994 0.9559 2.7331
C 6.0865 1.3812 3.9832
C 7.4639 1.4987 4.2044
Cl 8.0736 2.0872 5.7431
C 8.3583 1.1465 3.1940
C 7.8781 0.7384 1.9473
C 6.4798 -1.5577 -0.5503
C 5.5619 -2.5844 -0.8277
C 6.0339 -3.8717 -1.1580
C 7.4105 -4.1309 -1.2263
Cl 7.9988 -5.7520 -1.5667
C 8.3211 -3.0988 -1.0006
C 7.8589 -1.8242 -0.6634
H -1.8304 -0.5045 -0.8519
H -2.6596 -1.7789 -2.7573
H -1.0851 -2.8239 -4.3609
H 1.3545 -2.4838 -4.0987
H 2.2213 -1.1833 -2.1977
H 1.5475 -2.8802 0.3724
H 0.7670 -4.4681 2.1218
H -0.6163 -3.6672 4.0193
H -1.2068 -1.2723 4.1952
H -0.4676 0.3047 2.4801
H -1.6405 1.2172 0.3205
H -2.4705 3.4788 0.5949
H -0.8879 5.3740 0.7436
H 1.5589 4.9612 0.6252
H 2.4344 2.6242 0.3052
H 5.8222 3.0620 0.1393
H 6.2345 4.7774 -1.5800
H 7.6779 1.7828 -4.2802
H 7.2745 0.0468 -2.6090
H 4.5320 0.8420 2.5989
H 5.3983 1.6216 4.7842
H 9.4270 1.1935 3.3702
H 8.5961 0.4608 1.1914
H 4.4923 -2.3972 -0.7526
H 5.3371 -4.6801 -1.3385
H 9.3880 -3.2876 -1.0609
H 8.5883 -1.0522 -0.4689
