72
 
P 1.1057 0.6998 0.3019
F -0.2173 1.6809 0.6269
F 0.7760 0.5346 -1.3474
F 0.4440 -0.5717 1.2255
Ni 3.6021 0.4697 0.1839
C 5.8718 0.1902 0.0564
N 6.5801 -0.9073 -0.0518
C 6.0546 -2.3342 -0.1324
C 4.7675 -2.7219 -0.7107
C 3.6708 -1.7940 -1.2716
C 4.1232 -0.9283 -2.4340
C 2.5048 -2.5894 -1.8055
C 4.4467 -4.1277 -0.8150
C 5.2534 -5.1380 -0.4781
C 6.3907 -4.8461 0.1584
C 6.7779 -3.5173 0.4000
C 7.9251 -3.4830 1.3552
C 9.1765 -3.4096 0.4454
C 7.5019 -2.4673 2.4340
C 8.0476 -0.4463 0.0083
C 8.0651 1.0213 -0.2010
N 6.7382 1.3338 0.1972
C 6.2348 2.6045 0.5079
C 6.7557 3.8289 -0.0584
C 8.0456 3.9802 -0.9185
C 7.7025 3.7824 -2.3896
C 8.7407 5.3437 -0.7769
C 5.9264 4.9538 0.0620
C 4.6871 4.8761 0.6793
C 4.3052 3.7399 1.3631
C 5.0962 2.6012 1.3655
C 4.7744 1.3999 2.3329
C 5.9722 1.2335 3.2995
C 3.5162 1.5868 3.1420
H 3.1946 -1.2568 -0.4709
H 4.6551 -1.5714 -3.1758
H 4.7490 -0.1049 -2.0920
H 3.2361 -0.4903 -2.9447
H 2.9601 -3.2103 -2.6230
H 1.6673 -2.0245 -2.2209
H 2.0990 -3.1127 -0.9070
H 3.5423 -4.5713 -1.1807
H 4.9369 -6.1572 -0.6793
H 6.9625 -5.6987 0.4926
H 8.0037 -4.4085 1.9785
H 9.0380 -2.7460 -0.4144
H 9.3058 -4.4039 -0.0476
H 10.1271 -3.1403 0.9227
H 7.5058 -1.6924 1.8573
H 8.1187 -2.0074 3.2214
H 6.4133 -2.4723 2.7205
H 8.8185 -0.7876 -0.6945
H 8.5217 -0.3933 1.0190
H 8.2482 1.2364 -1.2756
H 8.8764 1.5015 0.4183
H 8.8506 3.3058 -0.5978
H 6.9087 4.5040 -2.6828
H 7.3356 2.7563 -2.5727
H 8.6030 3.9682 -3.0124
H 8.0896 6.1077 -1.2260
H 9.6852 5.4526 -1.3609
H 8.9860 5.5149 0.2925
H 6.1910 5.8995 -0.3718
H 4.0198 5.7175 0.6604
H 3.3752 3.7588 1.8916
H 4.6296 0.4143 1.9225
H 6.1760 2.1773 3.8515
H 6.9044 0.9508 2.7608
H 5.7628 0.4293 4.0370
H 3.6287 2.4940 3.7627
H 3.3250 0.7396 3.8358
H 2.6805 1.6661 2.4268
