39
 
P 1.2728 0.2640 0.6071
F -0.2610 0.9120 0.7105
F 0.8190 -0.8591 -0.5645
F 1.2110 -0.3379 2.1804
Ni 3.6701 0.1209 0.3343
P 6.0326 -0.0432 0.1112
C 6.7578 -1.6615 0.0233
C 7.5116 -2.0826 -1.0709
C 7.8559 -3.4308 -1.1907
C 7.4671 -4.3510 -0.2105
C 6.7345 -3.9254 0.8991
C 6.3688 -2.5843 1.0106
C 6.4819 0.9223 -1.3730
C 7.2786 2.0830 -1.2218
C 7.5647 2.9071 -2.3165
C 7.0849 2.5748 -3.5812
C 6.3437 1.4012 -3.7567
C 6.0364 0.5794 -2.6577
C 6.4749 0.6754 1.7080
C 5.4521 1.1218 2.5537
C 5.7902 1.7919 3.7397
C 7.1311 2.0339 4.0558
C 8.1281 1.5788 3.1900
O 9.3009 1.8003 3.4441
N 7.7835 0.9015 2.0411
H 7.7870 -1.3907 -1.8516
H 8.4018 -3.7667 -2.0591
H 7.7203 -5.3962 -0.3188
H 6.4229 -4.6386 1.6528
H 5.7417 -2.2785 1.8436
H 7.6753 2.3771 -0.2592
H 8.1502 3.8109 -2.1832
H 7.2921 3.2280 -4.4221
H 5.9947 1.1406 -4.7469
H 5.4422 -0.3097 -2.8072
H 4.4113 0.9783 2.2737
H 5.0176 2.1502 4.4077
H 7.3925 2.5823 4.9569
H 8.5447 0.5889 1.3966
