20
 
P 1.1904 -0.2194 0.0010
Cl -0.5371 -1.0782 0.7391
Cl 0.6759 1.7509 0.4196
Cl 0.8900 -0.8837 -1.9590
Ni 3.5862 -0.1092 -0.0453
N 5.5807 -0.0958 0.0097
C 6.2515 1.0812 -0.0203
O 5.5690 2.2496 -0.0038
C 4.1881 2.3299 0.0589
C 7.6530 1.0689 -0.0934
C 8.3273 -0.1569 -0.1469
C 7.6084 -1.3499 -0.0786
C 6.2188 -1.2970 0.0152
H 3.8969 3.3997 0.0376
H 3.7983 1.8532 0.9730
H 3.7236 1.8246 -0.7986
H 8.2184 1.9893 -0.1352
H 9.4048 -0.1851 -0.2452
H 8.1206 -2.3035 -0.1183
H 5.6415 -2.2128 0.0633
