73
 
P 1.0867 0.0078 0.0492
C 0.3430 1.6265 0.4704
C -1.0490 1.9524 0.4505
C -2.0990 1.0394 -0.0186
C -1.4890 3.2092 0.8236
C -0.5821 4.1993 1.1665
C -1.0846 5.5321 1.6029
C 0.7905 3.9439 1.0971
C 1.2731 2.6700 0.7597
C 2.7870 2.4666 0.7108
C 0.5434 -0.3911 -1.7571
C 1.3546 0.0565 -2.8527
C 2.7168 0.6087 -2.7444
C 0.9656 -0.0661 -4.1829
C -0.1947 -0.6916 -4.5424
C -0.5193 -0.8105 -6.0031
C -0.9930 -1.2445 -3.5499
C -0.6686 -1.1397 -2.1679
C -1.6699 -1.9194 -1.2838
C 0.8294 -1.0889 1.5531
C 0.7039 -2.5230 1.3444
C 1.1010 -3.2929 0.0930
C 0.2403 -3.3598 2.3674
C -0.0343 -2.8726 3.6300
C -0.5846 -3.7879 4.6887
C 0.2729 -1.5466 3.9162
C 0.7350 -0.6521 2.9216
C 1.1963 0.6931 3.4278
Ni 3.5467 0.0078 0.0492
N 5.6467 0.0078 0.0492
C 6.3291 0.2599 1.1982
F 5.6521 0.4261 2.3601
C 7.7258 0.3447 1.1784
C 8.4015 0.1994 -0.0356
C 7.6809 -0.0582 -1.2032
C 6.2895 -0.1698 -1.1360
H -1.5113 0.2684 -0.3834
H -2.6634 1.4358 -0.8956
H -2.7941 0.6942 0.7708
H -2.5542 3.4175 0.8210
H -2.1942 5.5351 1.6739
H -0.7623 6.3115 0.8860
H -0.6764 5.7423 2.6127
H 1.4855 4.7401 1.3284
H 3.3311 3.4236 0.8710
H 3.0996 2.1304 -0.2936
H 3.1576 1.6942 1.4383
H 3.1074 0.4205 -1.7865
H 2.7302 1.6755 -3.0306
H 3.3817 0.0183 -3.4186
H 1.6125 0.3103 -4.9699
H 0.2589 -0.3200 -6.6330
H -1.4869 -0.3183 -6.2239
H -0.5430 -1.8822 -6.2837
H -1.8838 -1.7721 -3.8754
H -2.4097 -2.4775 -1.8907
H -2.3483 -1.4533 -0.5580
H -1.1528 -2.6561 -0.7038
H 1.4873 -2.6575 -0.7187
H 0.3014 -3.9779 -0.2537
H 1.9207 -4.0079 0.3418
H 0.0895 -4.4189 2.1752
H -0.7855 -4.8067 4.2882
H -1.5479 -3.3908 5.0790
H 0.1457 -3.8724 5.5158
H 0.1431 -1.2119 4.9387
H 1.2159 0.7121 4.5418
H 0.6239 1.5749 3.1028
H 2.2645 0.7868 3.1523
H 8.2791 0.5375 2.0885
H 9.4797 0.2921 -0.0729
H 8.1936 -0.1554 -2.1517
H 5.7148 -0.3460 -2.0355
