32
 
P 1.0661 -0.0378 -0.0648
C 0.1106 0.4093 1.4164
C 0.6250 1.4794 -0.9603
C 0.6548 -1.7218 -0.4049
C -0.6877 -2.0876 -0.6096
C -1.0163 -3.4130 -0.8889
C -0.0040 -4.3727 -0.9592
C 1.3428 -3.9988 -0.7716
C 1.6872 -2.6549 -0.5016
Ni 3.5261 -0.0378 -0.0648
N 5.6261 -0.0378 -0.0648
C 6.2683 -1.2151 -0.2880
C 7.6616 -1.2819 -0.2040
Cl 8.4940 -2.8027 -0.4705
C 8.3799 -0.1274 0.1177
C 7.7007 1.0743 0.3357
C 6.3062 1.1010 0.2329
H -0.9821 0.3855 1.2752
H 0.4525 1.4048 1.7784
H 0.4033 -0.3176 2.2093
H -0.4865 1.5319 -1.0236
H 0.9949 1.3737 -2.0030
H 1.0289 2.3967 -0.4984
H -1.4791 -1.3470 -0.5635
H -2.0535 -3.6934 -1.0499
H -0.2715 -5.4031 -1.1675
H 2.1065 -4.7594 -0.8420
H 2.7376 -2.2864 -0.3628
H 5.6890 -2.1011 -0.5136
H 9.4583 -0.1629 0.2067
H 8.2484 1.9701 0.5980
H 5.7627 2.0161 0.4268
