24
 
P 1.1980 0.0885 -0.1001
Cl -0.4512 -0.7608 0.7871
Cl 0.7296 2.0921 0.2467
Cl 0.8434 -0.6098 -2.0437
Ni 3.5775 0.1361 -0.0769
N 5.5839 0.1317 0.0044
C 6.2391 1.3102 -0.0029
C 7.6236 1.3450 -0.1424
C 8.3789 0.1500 -0.2537
N 9.8083 0.1716 -0.5373
C 10.5643 1.4091 -0.7434
C 10.5940 -1.0436 -0.7454
C 7.6512 -1.0635 -0.1207
C 6.2579 -1.0479 -0.0129
H 5.6784 2.2313 0.0515
H 8.0413 2.3285 -0.1981
H 9.9994 2.3429 -0.6379
H 10.9785 1.4317 -1.7756
H 11.4000 1.4690 -0.0171
H 10.0453 -1.9871 -0.6471
H 11.4277 -1.0839 -0.0153
H 11.0088 -1.0511 -1.7773
H 8.0980 -2.0406 -0.1407
H 5.7176 -1.9872 0.0166
