65
 
P 0.9633 -0.0862 0.0350
C 0.1044 0.1798 1.6218
C -1.2723 0.3676 1.7476
C -1.8571 0.5298 3.0211
C -3.3275 0.7510 3.1574
C -1.0633 0.4857 4.1776
C 0.3078 0.2767 4.0697
C 0.8909 0.1300 2.8036
C 0.5168 1.4388 -0.8841
C 0.9163 2.7155 -0.4888
C 0.5187 3.8553 -1.2223
C 0.8884 5.2223 -0.7403
C -0.2547 3.7171 -2.3870
C -0.6376 2.4485 -2.8155
C -0.2634 1.3178 -2.0701
C 0.4852 -1.7663 -0.4834
C 1.4659 -2.7336 -0.7639
C 1.0777 -3.9977 -1.2845
C 2.0790 -5.0581 -1.6216
C -0.2781 -4.2789 -1.5190
C -1.2493 -3.3328 -1.2129
C -0.8749 -2.0879 -0.6967
Ni 3.4233 -0.0862 0.0350
P 5.8833 -0.0862 0.0350
N 6.7671 -1.1391 1.1468
C 8.2055 -1.0475 1.0841
C 8.6111 -0.0800 -0.0133
C 10.1367 -0.0343 -0.0501
C 8.0099 -0.6474 -1.3727
N 6.5366 -0.9017 -1.3601
N 6.5636 1.4291 0.5428
C 8.0330 1.3563 0.3508
H -1.8848 0.3976 0.8635
H -3.8275 0.7082 2.1683
H -3.5012 1.7516 3.6052
H -3.7675 -0.0292 3.8139
H -1.5085 0.6036 5.1618
H 0.9124 0.2251 4.9719
H 1.9612 -0.0440 2.7630
H 1.5197 2.8234 0.3962
H 1.5315 5.1601 0.1613
H -0.0454 5.7551 -0.4630
H 1.4235 5.7995 -1.5234
H -0.5622 4.5893 -2.9606
H -1.2353 2.3504 -3.7203
H -0.5967 0.3522 -2.4351
H 2.5203 -2.4700 -0.6031
H 3.1022 -4.7504 -1.3312
H 2.0517 -5.2559 -2.7154
H 1.8212 -5.9988 -1.0861
H -0.5851 -5.2339 -1.9395
H -2.2943 -3.5630 -1.3958
H -1.6608 -1.3765 -0.5003
H 6.4290 -2.1234 1.0305
H 8.6217 -2.0638 0.8992
H 8.5675 -0.7101 2.0793
H 10.5356 -1.0542 -0.2424
H 10.5211 0.3024 0.9395
H 10.4888 0.6587 -0.8364
H 8.5091 -1.6087 -1.6209
H 8.2546 0.0661 -2.1893
H 6.2580 -1.9050 -1.4167
H 6.2768 1.6476 1.5230
H 8.5085 1.7245 1.2874
H 8.3158 2.0700 -0.4518
