84
 
P 0.9711 0.0432 0.0854
C 0.1675 -1.0118 1.3089
C -1.2137 -1.1117 1.4845
C -1.7261 -1.8896 2.5340
C -0.8640 -2.5622 3.4118
Cl -1.5124 -3.4669 4.7690
C 0.5162 -2.4948 3.2178
C 1.0288 -1.7300 2.1676
C 0.5070 1.6580 0.7422
C 0.8726 2.0861 2.0249
C 0.4284 3.3296 2.5008
C -0.3758 4.1490 1.6978
Cl -0.9589 5.6899 2.3024
C -0.7257 3.7330 0.4123
C -0.2880 2.4953 -0.0614
C 0.3944 -0.4702 -1.5529
C -0.4295 -1.5925 -1.7362
C -0.9194 -1.9120 -3.0064
C -0.5983 -1.1141 -4.1076
Cl -1.2110 -1.5295 -5.6989
C 0.2064 0.0156 -3.9356
C 0.7018 0.3362 -2.6651
Ni 3.4311 0.0432 0.0854
P 5.8911 0.0432 0.0854
C 6.7713 -1.3568 -0.8018
C 6.3045 -2.7431 -0.2797
C 4.8069 -3.0081 -0.5655
C 4.4820 -2.9148 -2.0613
C 4.9295 -1.5619 -2.6069
C 6.4433 -1.3601 -2.3356
C 6.4253 1.5185 -1.0131
C 5.9545 2.9579 -0.6302
C 6.6835 3.5516 0.5941
C 8.1998 3.5579 0.4171
C 8.6776 2.1390 0.0992
C 7.9770 1.6119 -1.1715
C 6.3202 0.0502 2.0022
C 5.7621 0.9895 2.9706
C 4.6244 1.9191 2.7208
C 6.2654 1.1094 4.2945
C 7.2803 0.3050 4.7568
C 7.7712 -0.6853 3.9215
C 7.3104 -0.8189 2.5790
H -1.8832 -0.5811 0.8256
H -2.7941 -1.9535 2.6798
H 1.1912 -3.0163 3.8903
H 2.1071 -1.6764 2.0480
H 1.4803 1.4566 2.6590
H 0.6974 3.6538 3.4971
H -1.3465 4.3603 -0.2173
H -0.5879 2.1910 -1.0549
H -0.7119 -2.2207 -0.9071
H -1.5564 -2.7779 -3.1311
H 0.4395 0.6481 -4.7843
H 1.3035 1.2301 -2.5489
H 7.8648 -1.2712 -0.6507
H 6.4806 -2.8415 0.8040
H 6.9081 -3.5356 -0.7812
H 4.1923 -2.2587 -0.0259
H 4.5293 -4.0206 -0.2010
H 3.3866 -3.0349 -2.2202
H 4.9966 -3.7299 -2.6185
H 4.3078 -0.7681 -2.1119
H 4.7408 -1.5427 -3.7062
H 6.7916 -0.4431 -2.8423
H 7.0016 -2.1860 -2.8352
H 5.9754 1.3282 -2.0050
H 4.8547 3.0034 -0.5056
H 6.2108 3.6378 -1.4803
H 6.4836 2.9405 1.4663
H 6.3327 4.5882 0.7973
H 8.6853 3.9205 1.3528
H 8.4891 4.2539 -0.4014
H 8.4627 1.4748 0.9612
H 9.7784 2.1657 -0.0499
H 8.4172 0.6474 -1.4689
H 8.2177 2.3164 -1.9999
H 4.2718 1.8492 1.6833
H 4.9226 2.9605 2.9831
H 3.8028 1.6444 3.4205
H 5.8751 1.8557 4.9883
H 7.6653 0.4479 5.7706
H 8.5420 -1.3291 4.3339
H 7.7904 -1.5942 2.0142
