63
 
P 0.9545 0.0795 -0.0401
C 0.2079 -0.0775 1.7833
C -1.3262 -0.0967 1.8792
C 0.6303 -1.3329 2.6264
C 0.7437 1.0899 2.6457
C 0.4666 1.9179 -0.7141
C 1.1565 3.0205 0.1036
C 0.8279 2.3796 -2.1810
C -1.0686 2.1546 -0.7437
C 0.4877 -1.4548 -1.0267
C 1.0157 -1.6046 -2.5260
C 2.5587 -1.5637 -2.4949
C 0.5446 -2.9404 -3.1348
C 0.5238 -0.5586 -3.5321
Ni 3.4145 0.0795 -0.0401
N 5.5145 0.0795 -0.0401
C 6.3473 0.9446 0.5513
N 7.6366 0.5950 0.3321
C 8.8240 1.2946 0.7640
C 8.7326 2.4933 1.5018
C 9.8858 3.1982 1.8547
C 11.1427 2.7167 1.4862
C 11.2506 1.5205 0.7780
C 10.1039 0.8131 0.4201
C 7.5838 -0.5355 -0.4141
C 6.2681 -0.8485 -0.6419
H -1.7456 -1.0196 1.4427
H -1.8258 0.7408 1.4472
H -1.6396 -0.0044 2.9459
H 0.3614 -2.2954 2.1563
H 0.0607 -1.3239 3.5995
H 1.6845 -1.3364 2.9800
H 0.1728 1.9873 2.4491
H 1.8506 1.2095 2.5241
H 0.5412 0.9835 3.7323
H 2.2465 2.8191 0.1503
H 0.7526 3.2032 1.0788
H 0.9788 4.0267 -0.3339
H 1.9121 2.4343 -2.4092
H 0.4680 3.4239 -2.3613
H 0.1894 1.9737 -2.9859
H -1.5426 2.1892 0.2185
H -1.5785 1.4391 -1.4340
H -1.3199 3.1818 -1.0870
H -0.6221 -1.5262 -1.0384
H 0.8756 -2.3262 -0.4648
H 2.9294 -2.3671 -1.8473
H 2.9586 -0.6283 -2.0349
H 2.9565 -1.6962 -3.5329
H 0.8581 -3.7771 -2.4899
H 0.9943 -3.0875 -4.1482
H -0.5622 -2.9625 -3.2726
H 1.1009 0.3048 -3.3045
H -0.5873 -0.4289 -3.5510
H 0.8498 -0.7560 -4.5805
H 6.0055 1.8004 1.1152
H 7.7786 2.9041 1.7977
H 9.8023 4.1255 2.4060
H 12.0337 3.2703 1.7476
H 12.2232 1.1419 0.4932
H 10.2336 -0.1011 -0.1380
H 8.4236 -1.1035 -0.7848
H 5.8820 -1.6881 -1.2045
