91
 
P 1.0411 0.0697 0.0587
C 0.2466 0.0658 -1.5594
C -1.1334 0.0624 -1.7545
C -1.6521 -0.0661 -3.0570
C -3.1223 -0.1856 -3.2768
C -0.7864 -0.1420 -4.1605
C 0.5911 -0.0756 -3.9727
C 1.1064 0.0255 -2.6795
C 0.4322 -1.6646 0.4700
C 0.6456 -2.8421 -0.2931
C 0.2268 -4.1150 0.1659
C 0.4913 -5.3519 -0.6493
C -0.4442 -4.2335 1.3883
C -0.7454 -3.0877 2.1187
C -0.3226 -1.8239 1.6653
C 0.4812 1.4957 1.0747
C -0.3471 2.5223 0.5779
C -0.7511 3.5894 1.4120
C -1.5240 4.7533 0.8655
C -0.3907 3.5953 2.7653
C 0.4000 2.5704 3.2777
C 0.8471 1.5398 2.4393
Ni 3.5011 0.0697 0.0587
C 5.6511 0.0697 0.0587
N 6.3961 1.2436 0.1260
C 6.0141 2.6766 0.1451
C 4.7754 3.0925 0.6902
C 3.8418 2.2158 1.3820
C 4.3564 4.4123 0.6758
C 5.1504 5.4104 0.1727
C 4.6528 6.8160 0.2645
C 6.3933 5.0848 -0.3670
C 6.8460 3.7422 -0.4006
C 8.1998 3.5472 -1.0426
C 7.6627 0.8179 0.0828
C 7.7168 -0.5141 -0.0037
N 6.4840 -1.0649 -0.0148
C 6.1819 -2.5494 0.0128
C 7.1105 -3.6527 0.0853
C 8.6005 -3.6230 0.1420
C 6.6228 -4.9929 0.1189
C 5.2594 -5.2841 0.1116
C 4.6796 -6.6444 0.1241
C 4.3765 -4.2715 0.0656
C 4.8440 -2.9993 -0.0022
C 3.8420 -2.1337 -0.1021
H -1.7912 0.1234 -0.8999
H -3.6790 -0.0871 -2.3222
H -3.3149 -1.1976 -3.6909
H -3.4796 0.5814 -3.9945
H -1.1784 -0.2606 -5.1647
H 1.2578 -0.1332 -4.8273
H 2.1850 0.0430 -2.5584
H 1.1406 -2.8076 -1.2446
H 0.9591 -5.0979 -1.6220
H -0.4661 -5.8738 -0.8613
H 1.1703 -6.0451 -0.1051
H -0.7564 -5.2086 1.7612
H -1.3025 -3.1876 3.0470
H -0.5845 -0.9710 2.2765
H -0.6709 2.5119 -0.4511
H -1.7210 4.6369 -0.2198
H -0.8958 5.6617 0.9970
H -2.4841 4.9042 1.4027
H -0.7129 4.4012 3.4195
H 0.6766 2.5869 4.3264
H 1.4765 0.7715 2.8688
H 4.2560 1.2430 1.5399
H 2.9516 2.1588 0.7327
H 3.6081 2.5888 2.3935
H 3.3937 4.6655 1.1076
H 3.6461 6.8552 0.7424
H 4.5703 7.2509 -0.7486
H 5.3453 7.3973 0.9060
H 7.0124 5.8884 -0.7557
H 8.6384 4.4838 -1.4444
H 8.1221 2.8255 -1.8853
H 8.9437 3.2642 -0.2820
H 8.5660 1.3697 0.1293
H 8.6819 -0.9085 -0.0323
H 9.1416 -2.7151 0.1424
H 8.9847 -4.1650 -0.7425
H 8.9091 -4.0968 1.0932
H 7.3127 -5.8203 0.1545
H 5.4762 -7.4034 0.1311
H 4.0581 -6.7472 -0.7948
H 4.0174 -6.7486 1.0131
H 3.3003 -4.4683 0.0718
H 2.9723 -2.0889 -0.7255
H 4.2892 -1.6170 -1.0233
H 3.7193 -1.6632 0.8910
