90
 
P 0.9994 0.0859 0.0513
C 0.2021 -1.4603 0.5498
C -1.1752 -1.6591 0.6741
C -1.6587 -2.7889 1.3498
C -0.7753 -3.7427 1.8846
C -1.2817 -4.8874 2.7163
C 0.5995 -3.5927 1.6783
C 1.0836 -2.4587 1.0211
C 0.4911 1.1692 1.3935
C 1.4231 1.7490 2.2538
C 0.9714 2.5651 3.3106
C -0.4069 2.8102 3.4930
C -0.9214 3.6233 4.6450
C -1.3238 2.2694 2.5905
C -0.8778 1.4592 1.5545
C 0.5048 0.4621 -1.6419
C -0.2233 1.6639 -1.8350
C -0.6969 2.0269 -3.0963
C -0.4425 1.1997 -4.1934
C -1.0098 1.5318 -5.5442
C 0.3315 0.0372 -4.0145
C 0.8048 -0.3305 -2.7430
Ni 3.4594 0.0859 0.0513
P 5.9194 0.0859 0.0513
C 6.6175 -0.4502 -1.6422
C 6.1356 0.5603 -2.7204
C 8.1441 -0.5756 -1.7196
C 6.0008 -1.7864 -2.1063
C 6.4284 1.8410 0.5906
C 5.8843 2.1944 1.9934
C 7.9758 1.9863 0.5890
C 5.8618 2.9375 -0.3350
C 6.3583 -1.2551 1.2064
C 5.9488 -2.5730 1.0428
C 6.2048 -3.5275 2.0266
C 6.8413 -3.1921 3.2513
N 6.9303 -4.1321 4.3553
C 6.4090 -5.4918 4.2770
C 7.4121 -3.7627 5.6865
C 7.3241 -1.8733 3.3635
C 7.0990 -0.9448 2.3599
H -1.8785 -0.9315 0.3193
H -2.7242 -2.8933 1.4967
H -2.3820 -4.8309 2.8552
H -0.8174 -4.8316 3.7274
H -1.0194 -5.8608 2.2563
H 1.2974 -4.3225 2.0787
H 2.1602 -2.3350 0.9463
H 2.4845 1.5477 2.0957
H 1.6887 2.9998 3.9920
H -0.0975 3.9386 5.3162
H -1.6270 2.9980 5.2359
H -1.4641 4.5232 4.2848
H -2.3877 2.4607 2.6942
H -1.6195 1.0708 0.8786
H -0.4464 2.3332 -1.0108
H -1.2730 2.9422 -3.2122
H -1.6394 2.4491 -5.5186
H -1.6586 0.6908 -5.8706
H -0.1977 1.6765 -6.2843
H 0.5500 -0.5955 -4.8612
H 1.3859 -1.2291 -2.6124
H 6.6621 1.5171 -2.6728
H 5.0326 0.7180 -2.6593
H 6.3632 0.2145 -3.7518
H 8.6564 0.3898 -1.6454
H 8.4425 -0.9666 -2.7170
H 8.5153 -1.2596 -0.9324
H 4.8900 -1.7628 -2.0117
H 6.4445 -2.6529 -1.5922
H 6.2333 -1.9708 -3.1814
H 6.2519 1.5911 2.8300
H 4.7793 2.1405 1.9994
H 6.1943 3.2327 2.2554
H 8.5047 1.1828 1.1331
H 8.3012 2.9557 1.0176
H 8.3732 2.0012 -0.4357
H 4.7590 2.8562 -0.4110
H 6.3009 2.9510 -1.3336
H 6.1236 3.9455 0.0562
H 5.3854 -2.8862 0.1871
H 5.8289 -4.5005 1.7940
H 6.0006 -5.7932 3.3069
H 5.5765 -5.6057 5.0036
H 7.2133 -6.2154 4.5137
H 7.7539 -2.7266 5.8077
H 8.2550 -4.4199 5.9816
H 6.5858 -3.8843 6.4210
H 7.8519 -1.4902 4.2205
H 7.4917 0.0242 2.5566
