83
 
P 0.9267 0.0659 -0.0172
C 0.1822 -0.9908 1.2363
C -1.1861 -1.0325 1.4321
C -1.7243 -1.8581 2.4109
C -0.9035 -2.6813 3.2103
O -1.4253 -3.4705 4.1860
C -2.7643 -3.4777 4.5297
C 0.4804 -2.6753 2.9908
C 1.0221 -1.8298 2.0110
C 0.2886 1.6046 0.6416
C 0.7248 2.1868 1.8246
C 0.1116 3.3568 2.2815
C -0.9520 3.9527 1.5654
O -1.6078 5.0485 2.0283
C -1.3746 5.6256 3.2605
C -1.3558 3.3846 0.3530
C -0.7336 2.2244 -0.1082
C 0.4936 -0.5690 -1.6391
C -0.2446 -1.7455 -1.8094
C -0.5333 -2.2082 -3.0910
C -0.0964 -1.4999 -4.2281
O -0.3160 -1.9608 -5.4871
C -0.8608 -3.1972 -5.7776
C 0.5978 -0.2946 -4.0520
C 0.8907 0.1661 -2.7646
Ni 3.3867 0.0659 -0.0172
P 5.8467 0.0659 -0.0172
C 6.5779 1.6548 0.6369
C 6.0794 1.8903 2.0712
C 8.1034 1.7351 0.5749
C 6.0047 2.8191 -0.2214
C 6.3551 -1.1969 1.2026
C 5.4180 -1.9713 1.9069
C 5.8450 -2.9710 2.8000
C 7.2081 -3.2144 2.9909
C 8.1456 -2.4966 2.2535
C 7.7226 -1.5133 1.3552
C 6.2136 -0.2067 -1.7772
C 5.1636 -0.3631 -2.6989
C 5.4754 -0.5982 -4.0653
C 6.8119 -0.6788 -4.4964
C 7.8458 -0.5438 -3.5739
C 7.5503 -0.3200 -2.2256
H -1.8331 -0.4182 0.8294
H -2.7924 -1.8418 2.5354
H -2.9477 -4.1907 5.3560
H -3.3766 -3.7830 3.6540
H -3.0727 -2.4605 4.8612
H 1.1339 -3.3162 3.5806
H 2.0947 -1.8445 1.8577
H 1.5269 1.7398 2.3916
H 0.4615 3.7827 3.2072
H -2.0660 6.4761 3.4205
H -0.3297 5.9967 3.3090
H -1.5448 4.8766 4.0663
H -2.1652 3.8234 -0.2248
H -1.0788 1.7908 -1.0421
H -0.5972 -2.3205 -0.9663
H -1.0910 -3.1284 -3.1848
H -0.9039 -3.3444 -6.8744
H -1.8903 -3.2650 -5.3675
H -0.2296 -4.0022 -5.3376
H 0.9278 0.2815 -4.9090
H 1.4336 1.0962 -2.6429
H 6.4858 1.1311 2.7665
H 4.9661 1.8560 2.1027
H 6.3952 2.8963 2.4293
H 8.5702 1.0005 1.2435
H 8.4550 2.7309 0.9126
H 8.4548 1.6095 -0.4658
H 4.8921 2.7875 -0.2589
H 6.3839 2.8037 -1.2656
H 6.2820 3.8080 0.2117
H 4.3626 -1.8236 1.7521
H 5.1227 -3.5662 3.3438
H 7.5403 -3.9741 3.6898
H 9.2027 -2.7092 2.3684
H 8.4814 -1.0244 0.7695
H 4.1190 -0.3154 -2.3162
H 4.6962 -0.7274 -4.8054
H 7.0563 -0.8584 -5.5415
H 8.8795 -0.6202 -3.9026
H 8.3818 -0.2500 -1.5438
