53
 
P 0.9253 -0.0488 0.0452
C 0.0562 -0.4212 -1.5734
C -1.3426 -0.5748 -1.8382
C -2.4200 -0.3072 -0.8782
C -1.7965 -1.0448 -3.0802
C -0.9120 -1.3552 -4.0962
C 0.4500 -1.1762 -3.8947
C 0.9293 -0.7143 -2.6559
C 0.6058 -1.4599 1.1914
C 1.0266 -2.7975 0.9742
C 1.9967 -3.1819 -0.0996
C 0.5444 -3.8250 1.8179
C -0.3033 -3.5403 2.8893
C -0.5996 -2.2224 3.1911
C -0.1302 -1.2024 2.3713
C 0.3740 1.6795 0.4039
C 1.0841 2.8698 0.1077
C 2.4360 2.8959 -0.5198
C 0.5243 4.1186 0.4532
C -0.6915 4.2099 1.1307
C -1.3474 3.0600 1.5109
C -0.8150 1.8337 1.1713
Ni 3.3853 -0.0488 0.0452
O 5.4353 -0.0488 0.0452
C 6.1919 -0.8656 0.7343
C 7.5123 -0.5575 0.4687
C 7.4932 0.4943 -0.4289
C 6.1639 0.7791 -0.6602
H -2.0220 0.2945 -0.1330
H -2.8036 -1.2541 -0.4587
H -3.2158 0.3242 -1.3276
H -2.8586 -1.1799 -3.2562
H -1.2955 -1.7365 -5.0358
H 1.1311 -1.4240 -4.7003
H 2.0032 -0.6245 -2.5425
H 2.3406 -2.3149 -0.6908
H 1.5509 -3.9501 -0.7583
H 2.9043 -3.6096 0.3887
H 0.8152 -4.8579 1.6424
H -0.7037 -4.3326 3.5103
H -1.2113 -1.9829 4.0544
H -0.3739 -0.2179 2.6934
H 2.8209 1.9005 -0.6888
H 3.1346 3.4158 0.1748
H 2.4037 3.4320 -1.4851
H 1.0433 5.0330 0.2116
H -1.1151 5.1675 1.3935
H -2.2753 3.1014 2.0738
H -1.3996 1.0233 1.5473
H 5.8272 -1.6389 1.3966
H 8.3886 -1.0414 0.8784
H 8.3481 0.9943 -0.8644
H 5.7685 1.5443 -1.3151
