66
 
P 0.9679 -0.0277 -0.0906
C 0.2229 1.5332 -0.5906
C -1.1406 1.7747 -0.7732
C -1.5654 3.0251 -1.2651
C -3.0024 3.2611 -1.5962
C -0.6315 4.0481 -1.5001
C 0.7195 3.8300 -1.2495
C 1.1435 2.5780 -0.8095
C 0.5949 -1.0044 -1.5738
C 1.6460 -1.5348 -2.3223
C 1.3953 -2.3443 -3.4445
C 2.5292 -2.8437 -4.2852
C 0.0745 -2.6628 -3.7940
C -0.9849 -2.1790 -3.0256
C -0.7306 -1.3528 -1.9221
C 0.5678 -0.5361 1.5738
C 1.6187 -0.8264 2.4518
C 1.3073 -1.4224 3.7054
C 2.3834 -1.8656 4.6470
C -0.0361 -1.6711 4.0618
C -1.0694 -1.3462 3.1838
C -0.7699 -0.7901 1.9381
Ni 3.4279 -0.0277 -0.0906
P 5.8879 -0.0277 -0.0906
C 6.7629 1.5535 0.1491
C 6.3771 -0.9624 1.3855
C 6.4198 -0.5452 -1.7723
C 5.8872 0.3863 -2.8535
C 7.9630 -0.6304 -1.8194
C 5.8788 -1.9746 -1.9994
H -1.8622 1.0012 -0.5761
H -3.6212 2.3731 -1.3526
H -3.0684 3.4373 -2.6913
H -3.3974 4.1466 -1.0576
H -0.9472 5.0121 -1.8826
H 1.4418 4.6210 -1.4211
H 2.2053 2.4233 -0.6458
H 2.6576 -1.3110 -2.0246
H 3.5080 -2.5515 -3.8555
H 2.4412 -2.3713 -5.2846
H 2.5042 -3.9487 -4.3952
H -0.1327 -3.2923 -4.6537
H -2.0032 -2.4476 -3.2887
H -1.5759 -1.0170 -1.3418
H 2.6619 -0.6302 2.0890
H 3.3859 -1.6269 4.2418
H 2.3111 -2.9696 4.7684
H 2.2639 -1.3934 5.6455
H -0.2864 -2.1418 5.0099
H -2.0994 -1.5637 3.4551
H -1.5836 -0.6010 1.2492
H 6.4045 1.9840 1.1096
H 6.4139 2.2637 -0.6336
H 7.8610 1.4905 0.1592
H 5.9948 -0.5482 2.3309
H 7.4879 -1.0385 1.3948
H 6.0021 -2.0030 1.2449
H 6.2933 1.4074 -2.7235
H 4.7763 0.4137 -2.8077
H 6.2060 0.0154 -3.8522
H 8.4369 0.3565 -1.6606
H 8.3117 -1.0132 -2.8014
H 8.3444 -1.3255 -1.0355
H 4.7767 -1.9956 -1.9390
H 6.2619 -2.6810 -1.2278
H 6.1868 -2.3706 -2.9914
