66
 
P 0.9332 0.0522 -0.0530
C 0.1636 0.6599 -1.5685
C -1.2124 0.7200 -1.7948
C -1.6999 1.1336 -3.0484
C -3.1673 1.1436 -3.3244
C -0.8064 1.5061 -4.0654
C 0.5660 1.4809 -3.8323
C 1.0486 1.0604 -2.5921
C 0.3971 -1.6593 -0.3091
C -0.3952 -2.2624 0.7018
C -0.8365 -3.5950 0.5777
C -1.6696 -4.2705 1.6414
C -0.4896 -4.3156 -0.5690
C 0.2763 -3.7184 -1.5762
C 0.7241 -2.3973 -1.4477
C 0.4841 1.0720 1.3674
C 1.4836 1.5235 2.2344
C 1.1271 2.2289 3.4150
C 2.1300 2.6928 4.4230
C -0.2194 2.4816 3.6968
C -1.2119 2.0119 2.8458
C -0.8665 1.3030 1.6930
Ni 3.3932 0.0522 -0.0530
C 5.5432 0.0522 -0.0530
N 6.2756 -0.7335 -0.8615
C 5.7687 -1.6786 -1.8407
C 7.5676 -0.4752 -0.5831
C 7.6058 0.4634 0.4222
N 6.3368 0.7937 0.7441
C 5.9404 1.7620 1.7160
C 4.7186 2.4261 1.5736
C 4.3781 3.4398 2.4761
C 5.2065 3.7224 3.5730
C 6.4008 3.0238 3.7425
C 6.7821 2.0694 2.8016
H -1.8997 0.4198 -1.0237
H -3.7481 0.8735 -2.4181
H -3.3750 0.3931 -4.1150
H -3.4892 2.1473 -3.6728
H -1.1728 1.8122 -5.0388
H 1.2548 1.7699 -4.6194
H 2.1230 1.0288 -2.4416
H -0.6605 -1.7021 1.5927
H -1.9482 -3.5811 2.4666
H -1.1067 -5.1250 2.0769
H -2.6067 -4.6699 1.1951
H -0.8227 -5.3404 -0.6837
H 0.5237 -4.2869 -2.4603
H 1.3159 -1.9499 -2.2321
H 2.5122 1.2737 1.9728
H 3.1228 2.2851 4.1974
H 1.8863 2.3005 5.4292
H 2.1343 3.8067 4.4638
H -0.4995 3.0135 4.6002
H -2.2518 2.1792 3.0987
H -1.6657 0.9199 1.0828
H 4.6525 -1.6712 -1.8298
H 6.1377 -2.6952 -1.5857
H 6.1398 -1.4045 -2.8515
H 8.4203 -0.9287 -1.0708
H 8.4968 0.8942 0.8608
H 4.0476 2.1553 0.7536
H 3.4477 3.9781 2.3560
H 4.9132 4.4656 4.3041
H 7.0357 3.2226 4.5972
H 7.7190 1.5474 2.9411
