77
 
P 0.9302 -0.0543 0.0468
C 0.2038 -1.5180 1.0015
C -1.1755 -1.7535 1.2330
C -2.2367 -0.8994 0.6643
C -1.6160 -2.8583 1.9974
C -0.7229 -3.7825 2.5181
C 0.6329 -3.6289 2.2630
C 1.0972 -2.5147 1.5221
C 0.3622 1.3275 1.1416
C 0.7838 1.6248 2.4745
C 1.7391 0.7956 3.2674
C 0.2784 2.7728 3.1289
C -0.6752 3.5866 2.5247
C -1.1320 3.2784 1.2525
C -0.6063 2.1824 0.5674
C 0.3941 0.0112 -1.7296
C 0.6301 1.1163 -2.6068
C 1.3904 2.3353 -2.2299
C 0.1109 1.1164 -3.9149
C -0.6346 0.0459 -4.3836
C -0.8664 -1.0455 -3.5529
C -0.3604 -1.0647 -2.2436
Ni 3.3902 -0.0543 0.0468
C 5.5402 -0.0543 0.0468
N 6.2858 0.8359 -0.6579
C 5.8257 1.9780 -1.4476
C 4.3065 2.0456 -1.3846
C 6.4200 3.2727 -0.8430
C 6.2684 1.8396 -2.9139
C 7.5776 0.5375 -0.4216
C 7.6237 -0.5211 0.4343
N 6.3568 -0.9066 0.7230
C 5.9655 -2.0811 1.5133
C 7.2146 -2.8335 2.0665
C 5.0097 -1.6456 2.6303
C 5.2358 -3.0443 0.5761
H -1.8291 -0.0791 0.0667
H -2.8679 -0.5058 1.4838
H -2.8294 -1.5441 -0.0176
H -2.6729 -3.0130 2.1830
H -1.0926 -4.6259 3.1003
H 1.3109 -4.3868 2.6509
H 2.1662 -2.4588 1.3594
H 1.9919 -0.1486 2.7597
H 1.2514 0.5513 4.2394
H 2.6589 1.3807 3.4791
H 0.6097 3.0349 4.1280
H -1.0693 4.4509 3.0482
H -1.8923 3.8964 0.7901
H -0.9867 1.9951 -0.4256
H 1.8116 2.2390 -1.2193
H 0.7319 3.2249 -2.2485
H 2.1858 2.4880 -2.9943
H 0.2816 1.9603 -4.5777
H -1.0336 0.0709 -5.3920
H -1.4525 -1.8740 -3.9277
H -0.5771 -1.9256 -1.6301
H 3.9677 2.1062 -0.3306
H 3.8756 1.1603 -1.8928
H 3.9924 2.9790 -1.8961
H 6.1242 3.3757 0.2236
H 6.0698 4.1693 -1.3962
H 7.5312 3.2642 -0.8876
H 5.8511 0.9082 -3.3527
H 7.3751 1.8027 -2.9938
H 5.9034 2.7056 -3.5087
H 8.4327 1.0628 -0.8277
H 8.5367 -0.9770 0.7918
H 7.8220 -2.1993 2.7480
H 7.8748 -3.1478 1.2228
H 6.9343 -3.7617 2.6054
H 5.5402 -0.9708 3.3422
H 4.6802 -2.5390 3.2077
H 4.1123 -1.1293 2.1448
H 5.9083 -3.3167 -0.2669
H 4.3292 -2.5592 0.1591
H 4.9439 -3.9674 1.1185
