52
 
P 1.0799 -0.0053 0.0599
C 0.2789 -0.7194 -1.3931
C -1.1006 -0.8563 -1.5726
C -1.5976 -1.4850 -2.7197
C -0.7257 -1.9814 -3.6941
F -1.2155 -2.6393 -4.7735
C 0.6499 -1.8055 -3.5501
C 1.1495 -1.1686 -2.4114
C 0.6483 -1.3676 1.1736
C 1.0167 -2.7002 0.9659
C 0.5933 -3.6913 1.8691
C -0.1850 -3.3564 2.9854
F -0.6041 -4.3195 3.8449
C -0.5310 -2.0269 3.2155
C -0.1181 -1.0399 2.3171
C 0.4986 1.6776 0.3642
C -0.8809 1.9370 0.5102
C -1.3431 3.2207 0.8009
C -0.4331 4.2625 0.9652
F -0.8851 5.5086 1.2552
C 0.9415 4.0135 0.8466
C 1.4092 2.7208 0.5473
Ni 3.5399 -0.0053 0.0599
N 5.6399 -0.0053 0.0599
C 6.2787 -1.1536 -0.2336
C 5.4370 -2.3706 -0.4073
C 7.6759 -1.1501 -0.3785
C 8.3707 0.0594 -0.2375
C 7.6802 1.2256 0.1010
C 6.2925 1.1675 0.2732
C 5.5073 2.3685 0.6994
H -1.7987 -0.5039 -0.8417
H -2.6640 -1.6037 -2.8413
H 1.3287 -2.1766 -4.3110
H 2.2256 -1.0495 -2.3181
H 1.6132 -2.9701 0.1082
H 0.8623 -4.7242 1.7031
H -1.1246 -1.7614 4.0854
H -0.4086 -0.0164 2.5245
H -1.6167 1.1584 0.4273
H -2.4077 3.4015 0.9101
H 1.6405 4.8239 0.9970
H 2.4728 2.5131 0.4766
H 4.3453 -2.0820 -0.3006
H 5.7158 -3.1143 0.3706
H 5.6227 -2.8059 -1.4104
H 8.2163 -2.0547 -0.6237
H 9.4434 0.0971 -0.3803
H 8.2171 2.1588 0.2256
H 6.1643 3.2551 0.8385
H 5.0360 2.1450 1.6815
H 4.7090 2.5969 -0.0322
