78
 
P 1.0020 0.0977 -0.0214
C 0.3334 1.1333 -1.3628
C -1.0228 1.3460 -1.6448
C -1.4001 2.1690 -2.7316
C -2.8409 2.3566 -3.0882
C -0.4208 2.8052 -3.5115
C 0.9258 2.6333 -3.2106
C 1.2979 1.8043 -2.1489
C 0.6024 -1.5316 -0.7224
C 1.6265 -2.4438 -1.0078
C 1.3237 -3.7467 -1.4535
C 2.4109 -4.7333 -1.7489
C -0.0127 -4.1402 -1.6082
C -1.0408 -3.2572 -1.2845
C -0.7399 -1.9639 -0.8356
C 0.5235 0.5048 1.6689
C 1.5100 0.7028 2.6427
C 1.1283 0.8664 3.9994
C 2.1443 1.0376 5.0870
C -0.2322 0.8382 4.3565
C -1.2100 0.6590 3.3804
C -0.8372 0.4899 2.0427
Ni 3.4620 0.0977 -0.0214
P 5.9220 0.0977 -0.0214
O 7.1208 -1.0958 0.2168
C 6.4904 -2.3573 -0.0603
C 6.6437 -2.6708 -1.5489
C 7.1101 -3.5106 0.7452
O 6.2334 0.1940 -1.6945
C 5.7670 1.4169 -2.2321
C 6.3541 2.6718 -1.5490
C 6.1713 1.4515 -3.7083
O 6.5577 1.1539 1.1640
C 5.9301 1.0763 2.4085
C 6.3698 -0.1983 3.1189
C 6.4190 2.2915 3.2148
H -1.7802 0.8767 -1.0412
H -3.5023 1.8473 -2.3586
H -3.0094 1.9100 -4.0907
H -3.1053 3.4354 -3.1226
H -0.6990 3.4391 -4.3488
H 1.6805 3.1368 -3.8078
H 2.3540 1.6878 -1.9435
H 2.6558 -2.1463 -0.8598
H 3.4094 -4.3235 -1.4907
H 2.3889 -4.9847 -2.8289
H 2.2516 -5.6619 -1.1574
H -0.2563 -5.1412 -1.9512
H -2.0710 -3.5885 -1.3674
H -1.5645 -1.3250 -0.5543
H 2.5615 0.6788 2.3199
H 3.1723 1.0689 4.6748
H 2.0703 0.1869 5.8000
H 1.9478 1.9801 5.6422
H -0.5370 0.9445 5.3945
H -2.2564 0.6275 3.6695
H -1.6172 0.3149 1.3140
H 5.4032 -2.3945 0.2207
H 7.7137 -2.5557 -1.8221
H 6.0279 -1.9988 -2.1685
H 6.2847 -3.6877 -1.7929
H 8.1987 -3.5861 0.5577
H 6.6387 -4.4740 0.4300
H 6.9189 -3.4096 1.8342
H 4.6584 1.4407 -2.1911
H 7.4637 2.6187 -1.5274
H 5.9690 2.7885 -0.5187
H 6.0379 3.5902 -2.0854
H 7.2784 1.4102 -3.8105
H 5.8061 2.3860 -4.1864
H 5.7324 0.5882 -4.2505
H 4.8215 1.1471 2.3187
H 7.4811 -0.2602 3.1043
H 5.9516 -1.0811 2.5979
H 6.0090 -0.2035 4.1656
H 7.5314 2.2942 3.2787
H 6.0078 2.2734 4.2454
H 6.1085 3.2432 2.7302
