18
 
P 1.2516 -0.8966 0.2239
Cl -0.6845 -0.5352 0.8382
Cl 0.8406 -1.0039 -1.8154
Cl 1.4295 -2.7252 1.2049
Ni 3.5872 -0.5442 0.0806
P 5.8818 0.0171 -0.0122
C 6.7840 1.5753 -0.1239
C 6.4807 -0.6802 1.5727
C 6.4774 -0.9158 -1.4601
H 6.4324 2.2047 0.7257
H 6.4282 2.0745 -1.0524
H 7.8807 1.4774 -0.1161
H 6.1291 -0.1130 2.4538
H 7.5944 -0.7047 1.5674
H 6.1477 -1.7394 1.6569
H 6.1223 -0.4834 -2.4114
H 6.1443 -1.9738 -1.3721
H 7.5911 -0.9330 -1.4439
