69
 
P 1.0404 -0.0727 0.0555
C 0.6490 -1.7309 0.9320
C -0.6223 -2.2463 1.3874
C -1.8621 -1.4655 1.4451
C -0.7733 -3.5921 1.7783
C 0.2996 -4.4751 1.7553
C 0.1649 -5.9148 2.1483
C 1.5382 -4.0089 1.3742
C 1.7255 -2.6768 0.9914
C 3.1115 -2.3156 0.6323
C 0.5971 1.1672 1.4674
C 1.4223 1.8017 2.5232
C 2.9409 1.8583 2.7388
C 0.7916 2.5918 3.5283
C -0.5641 2.8702 3.5329
C -1.1867 3.6942 4.6411
C -1.3164 2.4535 2.4523
C -0.7608 1.6829 1.4129
C -1.6834 1.5301 0.1990
C 0.4035 0.0748 -1.7746
C -0.2949 -1.0056 -2.4700
C -0.6850 -2.3558 -1.9616
C -0.7470 -0.8734 -3.7951
C -0.6134 0.2926 -4.5014
C -1.0967 0.3894 -5.9202
C -0.0415 1.3783 -3.8797
C 0.4681 1.3164 -2.5562
C 1.0147 2.6511 -2.1011
Ni 3.5004 -0.0727 0.0555
C 5.6504 -0.0727 0.0555
N 6.3963 -0.2834 1.1562
C 7.6615 -0.1825 0.7123
C 7.6349 0.0646 -0.6418
O 6.3803 0.1390 -1.0153
H -1.5640 -0.4933 1.3077
H -2.2816 -1.4642 2.4667
H -2.6026 -1.7640 0.6729
H -1.7484 -3.9582 2.0816
H -0.8499 -6.1421 2.5318
H 0.9072 -6.1363 2.9442
H 0.3790 -6.5687 1.2738
H 2.3713 -4.7056 1.3684
H 3.8386 -3.1467 0.7270
H 3.4148 -1.5201 1.3715
H 3.0925 -2.0360 -0.4436
H 3.6461 1.4822 1.9791
H 3.2190 1.5781 3.7905
H 3.2178 2.9375 2.6939
H 1.3712 3.0307 4.3385
H -0.4358 4.0092 5.3987
H -1.9711 3.1160 5.1794
H -1.6438 4.6132 4.2192
H -2.3587 2.7547 2.4086
H -2.7544 1.5297 0.4883
H -1.5489 0.6249 -0.4048
H -1.4945 2.3627 -0.5034
H -0.4723 -2.5317 -0.9498
H -0.1828 -3.1511 -2.5464
H -1.7914 -2.4759 -2.0613
H -1.2416 -1.7048 -4.2922
H -1.5228 -0.5735 -6.2781
H -0.2382 0.6489 -6.5749
H -1.8779 1.1729 -6.0016
H 0.0068 2.2908 -4.4673
H 0.7074 3.4742 -2.8002
H 2.1167 2.6486 -2.1489
H 0.5970 2.9761 -1.1328
H 8.5419 -0.2834 1.3326
H 8.4873 0.1827 -1.2974
