21
 
P 1.2750 0.0000 0.0000
O 0.4303 1.4715 -0.3261
C -0.9649 1.3667 -0.2958
C -1.4029 -0.0520 0.0105
C -2.9341 -0.1165 0.0244
C -0.7802 -0.9618 -1.1169
O 0.6272 -0.8026 -1.3439
O 0.6246 -0.1640 1.5557
C -0.7806 -0.4154 1.4127
Ni 3.7350 0.0003 -0.0005
C 5.8850 0.0006 -0.0009
O 7.1031 0.0008 -0.0011
H -1.3504 1.6942 -1.2862
H -1.3483 2.0730 0.4740
H -3.3357 0.2055 -0.9626
H -3.3357 0.5818 0.7926
H -3.2845 -1.1424 0.2444
H -1.2831 -0.7017 -2.0748
H -1.0008 -2.0267 -0.8983
H -1.2860 0.2126 2.1791
H -0.9992 -1.4773 1.6510
