55
 
P 1.0976 -0.0203 0.0083
C 0.6559 -1.2630 -1.2607
C -0.3881 -2.1690 -0.9656
C -0.7501 -3.1843 -1.8546
C -0.0710 -3.3236 -3.0602
C 0.9616 -2.4349 -3.3803
C 1.3266 -1.4045 -2.4888
C 0.8132 -0.5965 1.8452
C 1.8978 -0.6802 2.7668
C 1.7859 -1.3368 4.0234
C 0.5943 -1.9338 4.4199
C -0.5246 -1.7875 3.6115
C -0.4384 -1.1122 2.3592
C 0.2669 1.5718 -0.6005
C 0.7248 2.6537 0.3951
C 2.2509 2.9296 0.2258
C 2.5859 3.5272 -1.1502
C 2.1046 2.5796 -2.2555
C 0.6231 2.1630 -2.0426
Ni 3.5576 -0.0203 0.0083
N 5.6576 -0.0203 0.0083
C 6.2947 -0.6082 1.0552
C 7.6814 -0.5136 1.1799
C 8.4121 0.1954 0.2173
C 9.8926 0.3891 0.3711
C 7.7370 0.7582 -0.8760
C 6.3447 0.6431 -0.9594
H -0.9377 -2.1091 -0.0450
H -1.5538 -3.8693 -1.6033
H -0.3469 -4.1231 -3.7405
H 1.4819 -2.5584 -4.3211
H 2.1366 -0.7433 -2.7557
H 2.8617 -0.2748 2.5163
H 2.6366 -1.4262 4.6923
H 0.5353 -2.5017 5.3553
H -1.4524 -2.2408 3.9633
H -1.3670 -1.0818 1.8119
H -0.8328 1.4287 -0.5637
H 0.5305 2.2862 1.4221
H 0.1335 3.5930 0.2730
H 2.8367 1.9770 0.3382
H 2.5969 3.6193 1.0176
H 3.6901 3.6560 -1.2374
H 2.1321 4.5416 -1.2631
H 2.7345 1.6709 -2.2603
H 2.2571 3.0876 -3.2441
H 0.3210 1.4925 -2.8726
H 0.0382 3.1081 -2.1769
H 5.7181 -1.1215 1.8131
H 8.1732 -0.9631 2.0337
H 10.2669 -0.0665 1.3132
H 10.1077 1.4789 0.4169
H 10.4395 -0.0540 -0.4854
H 8.2791 1.3090 -1.6348
H 5.8091 1.1109 -1.7746
