61
 
P 1.0435 -0.0282 -0.0855
C 0.3280 0.8923 1.4241
C 0.7705 2.3937 1.5521
C 0.0847 3.3173 0.5386
C -1.4446 3.1462 0.5274
C -1.8855 1.6682 0.5000
C -1.1974 0.8753 1.6128
C 0.7954 0.3055 -1.9695
C 1.2751 1.6411 -2.6074
C 2.7910 1.7761 -2.4852
C 3.4838 0.6148 -3.2245
C 2.9416 -0.7729 -2.8160
C 1.4091 -0.7990 -2.8675
C 0.5500 -1.7582 0.2684
C 1.3094 -2.7141 0.9929
C 2.6070 -2.3962 1.6450
C 0.8451 -4.0376 1.1073
C -0.3458 -4.4326 0.5027
C -1.0926 -3.5097 -0.2212
C -0.6524 -2.1885 -0.3342
Ni 3.5035 -0.0282 -0.0855
N 5.6035 -0.0282 -0.0855
C 6.2458 -0.9445 -0.8576
C 7.6389 -1.0433 -0.8186
Cl 8.4697 -2.2399 -1.7956
C 8.3583 -0.1922 0.0240
C 7.6794 0.7439 0.8080
C 6.2846 0.8104 0.7401
H 0.7772 0.3829 2.3032
H 1.8747 2.5085 1.4830
H 0.4732 2.7714 2.5570
H 0.5038 3.0804 -0.4153
H 0.3365 4.3875 0.7215
H -1.8835 3.6861 -0.3432
H -1.8451 3.6118 1.4511
H -1.6455 1.1906 -0.4675
H -2.9864 1.6283 0.6466
H -1.5719 -0.1626 1.6764
H -1.4440 1.3681 2.5881
H -0.3011 0.2674 -2.1442
H 0.7471 2.5243 -2.2587
H 1.0044 1.6587 -3.6914
H 3.0532 1.7903 -1.4114
H 3.1221 2.7388 -2.9364
H 4.5812 0.6634 -3.0592
H 3.3002 0.7477 -4.3137
H 3.2665 -1.0695 -1.8158
H 3.3605 -1.5381 -3.4991
H 1.0179 -1.7990 -2.6005
H 1.1017 -0.6169 -3.9272
H 2.8118 -1.3478 1.5459
H 3.4110 -3.0245 1.1992
H 2.5441 -2.5771 2.7352
H 1.4184 -4.7727 1.6596
H -0.6832 -5.4583 0.5886
H -2.0098 -3.8226 -0.7055
H -1.2518 -1.5050 -0.9212
H 5.6683 -1.6097 -1.4856
H 9.4372 -0.2619 0.0784
H 8.2274 1.4000 1.4717
H 5.7432 1.5134 1.3586
