71
 
P 0.9881 -0.0962 -0.0245
C 0.0530 -0.1991 1.5591
C -1.0835 0.5648 1.8681
C -1.6934 0.4627 3.1285
C -1.1831 -0.3974 4.1035
C -0.0592 -1.1701 3.8215
C 0.5556 -1.0750 2.5616
C 0.5048 1.6089 -0.4595
C 0.8491 2.7330 0.2996
C 0.3475 3.9993 -0.0498
C -0.4858 4.1570 -1.1631
C -0.8010 3.0537 -1.9534
C -0.3089 1.7877 -1.6073
C 0.5833 -1.5829 -1.0533
C 1.0724 -1.7130 -2.3897
O 1.8554 -0.7381 -2.9275
C 2.2953 -0.7122 -4.2425
C 0.7197 -2.8518 -3.1603
C -0.1140 -3.8348 -2.6458
C -0.6195 -3.7031 -1.3580
C -0.2762 -2.5944 -0.5664
Ni 3.4481 -0.0962 -0.0245
P 5.9081 -0.0962 -0.0245
N 6.9020 -1.3994 0.6686
C 6.3473 -1.6280 2.0248
C 6.6356 -2.6704 -0.0655
O 6.2739 1.1993 0.9201
C 6.3176 2.3757 0.2639
C 5.4894 3.4056 0.7267
C 5.4670 4.6441 0.0879
C 6.2964 4.8785 -1.0058
C 7.1465 3.8715 -1.4709
C 7.1635 2.5918 -0.8689
C 8.0980 1.5495 -1.4387
C 9.4294 1.9517 -1.6820
C 10.3762 1.0550 -2.1778
C 10.0091 -0.2501 -2.4879
C 8.6978 -0.6698 -2.2976
C 7.7365 0.1906 -1.7581
O 6.5049 -0.3345 -1.5435
H -1.5046 1.2420 1.1463
H -2.5648 1.0597 3.3548
H -1.6580 -0.4615 5.0777
H 0.3343 -1.8338 4.5878
H 1.4393 -1.6804 2.3883
H 1.4811 2.6280 1.1666
H 0.5914 4.8632 0.5513
H -0.8875 5.1336 -1.4139
H -1.4403 3.1817 -2.8230
H -0.5912 0.9467 -2.2315
H 2.9037 0.1962 -4.4160
H 1.4298 -0.6931 -4.9445
H 2.9231 -1.6034 -4.4620
H 1.0757 -2.9916 -4.1744
H -0.3757 -4.6942 -3.2567
H -1.2860 -4.4685 -0.9800
H -0.7061 -2.5340 0.4205
H 6.4810 -0.7384 2.6697
H 6.8396 -2.4909 2.5250
H 5.2489 -1.8610 1.9962
H 6.9464 -2.6276 -1.1234
H 5.5551 -2.9630 -0.0553
H 7.2106 -3.5109 0.3819
H 4.8419 3.2340 1.5772
H 4.8049 5.4237 0.4426
H 6.2770 5.8437 -1.4978
H 7.7726 4.0892 -2.3283
H 9.7540 2.9594 -1.4490
H 11.4012 1.3720 -2.3188
H 10.7428 -0.9464 -2.8701
H 8.4336 -1.6886 -2.5424
