75
 
P 1.0439 0.0790 0.0428
O 0.6172 -1.5250 0.4648
C 0.9612 -2.4537 -0.5245
C 2.4569 -2.5109 -0.7529
O 0.6362 1.5671 0.7710
C -0.6932 1.4003 1.2562
C -1.0593 2.4366 2.3151
C 0.3410 0.4599 -1.5930
C -0.8961 -0.0184 -2.0414
C -1.2597 0.1296 -3.3905
C -0.3981 0.7555 -4.2980
C 0.8263 1.2563 -3.8589
C 1.1965 1.1072 -2.5164
Ni 3.5039 0.0790 0.0428
P 5.9639 0.0790 0.0428
C 6.6605 -1.5342 -0.7091
C 6.1939 -1.6389 -2.1956
C 8.1797 -1.6901 -0.6554
C 6.0265 -2.7746 -0.0610
C 6.4992 1.6466 -0.9255
C 5.9494 2.9475 -0.2887
C 8.0501 1.7577 -0.9900
C 5.9652 1.6776 -2.3729
C 6.3723 0.1134 1.8313
C 5.9541 -0.8384 2.7553
C 6.1568 -0.6339 4.1312
C 6.7699 0.5496 4.6401
N 6.8437 0.8539 6.0613
C 6.2873 -0.0225 7.0827
C 7.3847 2.1076 6.5958
C 7.2694 1.4448 3.6828
C 7.0828 1.2205 2.3327
H 0.3795 -2.2959 -1.4522
H 0.6674 -3.4528 -0.1314
H 2.8531 -1.5670 -1.1583
H 2.6778 -3.3201 -1.4819
H 2.9210 -2.6882 0.2325
H -0.8840 0.4047 1.7380
H -1.3878 1.5362 0.4047
H -0.4788 2.2874 3.2510
H -2.1408 2.3353 2.5675
H -0.8866 3.4571 1.9228
H -1.5526 -0.5488 -1.3703
H -2.1977 -0.2728 -3.7454
H -0.6712 0.8364 -5.3447
H 1.4995 1.7286 -4.5685
H 2.1743 1.4670 -2.2119
H 6.7442 -0.9812 -2.8709
H 5.0964 -1.4609 -2.2940
H 6.4019 -2.6367 -2.6378
H 8.6968 -0.9849 -1.3142
H 8.4701 -2.6898 -1.0478
H 8.5395 -1.5795 0.3842
H 4.9423 -2.6805 -0.1156
H 6.3436 -2.9632 0.9725
H 6.2836 -3.6961 -0.6362
H 6.3950 3.2567 0.6613
H 4.8510 2.8903 -0.1645
H 6.1985 3.8153 -0.9423
H 8.5463 1.6402 -0.0108
H 8.3764 2.7306 -1.4098
H 8.4934 1.0077 -1.6569
H 4.8649 1.5476 -2.3900
H 6.4461 0.9675 -3.0444
H 6.2212 2.6442 -2.8606
H 5.4256 -1.7181 2.4414
H 5.7700 -1.4121 4.7544
H 5.8283 -0.9450 6.7119
H 5.4866 0.5162 7.6339
H 7.0863 -0.3194 7.7907
H 7.7687 2.8296 5.8639
H 8.2210 1.8916 7.2913
H 6.5881 2.6527 7.1488
H 7.7811 2.3626 3.9169
H 7.4874 1.9846 1.7252
