57
 
P 1.0418 0.0891 -0.0177
C 0.5673 0.3680 -1.8551
C 1.3110 1.6208 -2.4000
C 2.8388 1.4053 -2.6076
C 3.1438 0.2290 -3.5491
C 2.4320 -1.0371 -3.0751
C 0.9158 -0.7434 -2.9363
C 0.2192 -1.5557 0.3971
C 0.7766 -2.8139 -0.2991
C 2.2223 -3.0643 0.1103
C 2.2810 -3.3523 1.6045
C 1.6428 -2.2114 2.4193
C 0.2297 -1.8738 1.9144
C 0.5791 1.5362 1.0505
C 1.4475 2.3014 1.9125
C 2.9486 2.2427 1.9595
C 0.8825 3.2070 2.8415
C -0.4886 3.4119 2.9110
C -1.3288 2.7273 2.0444
C -0.8050 1.7978 1.1365
Ni 3.5018 0.0891 -0.0177
C 5.6518 0.0891 -0.0177
N 6.3976 1.0136 0.6154
C 7.6628 0.6418 0.3531
C 7.6361 -0.4914 -0.4284
O 6.3815 -0.8076 -0.6405
H -0.5280 0.5269 -1.8976
H 1.1342 2.4829 -1.7318
H 0.8909 1.8713 -3.4006
H 3.3312 1.2339 -1.6582
H 3.3071 2.3200 -3.0214
H 4.2428 0.0499 -3.6156
H 2.7853 0.4732 -4.5733
H 2.8703 -1.3785 -2.1230
H 2.6185 -1.8431 -3.8249
H 0.3159 -1.6527 -2.8664
H 0.5827 -0.3989 -3.9408
H -0.8515 -1.4238 0.1219
H 0.7314 -2.7936 -1.3657
H 0.1485 -3.6940 -0.0306
H 2.8444 -2.1810 -0.1215
H 2.6183 -3.9309 -0.4605
H 3.3402 -3.4912 1.9067
H 1.7333 -4.3021 1.7874
H 2.2675 -1.2996 2.3409
H 1.5945 -2.5231 3.4856
H -0.2074 -1.0405 2.5053
H -0.4252 -2.7615 2.0875
H 3.4013 1.7402 1.1158
H 3.2956 1.8572 2.9440
H 3.3282 3.2876 1.8742
H 1.5113 3.7655 3.5300
H -0.8973 4.1066 3.6386
H -2.3961 2.8998 2.1010
H -1.5012 1.2532 0.5152
H 8.5432 1.1613 0.7067
H 8.4882 -1.0377 -0.8101
