61
 
P 0.9608 0.0639 0.0661
C 0.1147 1.2794 -1.0739
C 0.5651 2.7381 -0.8555
C 2.0906 2.9319 -1.1134
C 2.5011 2.5012 -2.5314
C 2.0487 1.0705 -2.8012
C 0.5224 0.9785 -2.5603
C 0.3574 -1.6907 -0.5002
C 0.5063 -2.3996 -1.9333
C 1.9101 -2.9301 -2.2740
C 2.3790 -3.8774 -1.1744
C 2.3104 -3.1600 0.1822
C 0.8567 -2.7389 0.4937
C 0.6856 0.6965 1.8690
C 1.7399 1.0598 2.7936
C 3.1650 1.2866 2.4343
C 1.4865 1.2455 4.1781
C 0.2129 1.1517 4.6991
C -0.8445 0.8961 3.8378
C -0.6214 0.6653 2.4520
Ni 3.4208 0.0639 0.0661
N 5.5208 0.0639 0.0661
C 6.1731 0.6286 -0.9848
C 7.5633 0.5067 -1.0896
C 8.2749 -0.1111 -0.0580
F 9.6253 -0.2122 -0.1257
C 7.5886 -0.6378 1.0373
C 6.1929 -0.5873 1.0529
H -0.9858 1.1883 -0.9684
H 0.2901 3.0747 0.1611
H -0.0044 3.3773 -1.5774
H 2.7099 2.3129 -0.3971
H 2.3248 4.0172 -1.0082
H 3.6054 2.5839 -2.6451
H 2.0333 3.1607 -3.2959
H 2.6014 0.3625 -2.1484
H 2.3046 0.7979 -3.8503
H 0.1759 0.0180 -2.8741
H 0.0155 1.6715 -3.2658
H -0.7420 -1.5890 -0.3787
H 0.0903 -1.9157 -2.8215
H -0.1427 -3.3076 -1.9064
H 2.6244 -2.0930 -2.3886
H 1.8864 -3.5006 -3.2362
H 3.4105 -4.2308 -1.3930
H 1.7259 -4.7841 -1.1533
H 2.9874 -2.2634 0.1746
H 2.6525 -3.8731 0.9552
H 0.7431 -2.3493 1.5213
H 0.2093 -3.6449 0.4134
H 3.3058 1.4752 1.3704
H 3.7962 0.4870 2.8751
H 3.4778 2.2551 2.8830
H 2.2922 1.4718 4.8764
H 0.0556 1.2908 5.7713
H -1.8362 0.8477 4.2773
H -1.4897 0.4206 1.8626
H 5.6060 1.0675 -1.7951
H 8.0819 0.8753 -1.9655
H 8.1290 -1.0963 1.8559
H 5.6452 -0.9991 1.8904
