63
 
P 1.0556 0.0546 -0.0627
C 0.1452 0.0477 -1.6320
C 0.5450 -1.5237 0.6787
C 0.5243 1.6403 0.6446
Ni 3.5156 0.0546 -0.0627
C 5.6656 0.0546 -0.0627
N 6.4016 -1.0202 -0.2363
C 6.0322 -2.4460 -0.4213
C 4.7899 -2.9201 -0.9952
C 3.7070 -2.0655 -1.5709
C 4.5490 -4.3103 -1.1638
C 5.4964 -5.2641 -0.8079
C 5.3286 -6.7344 -1.0536
C 6.6777 -4.8509 -0.2576
C 6.9700 -3.5005 -0.0755
C 8.3485 -3.2934 0.4470
C 7.7848 -0.5896 -0.1596
C 7.7466 0.8741 -0.4074
N 6.4416 1.2422 0.0346
C 6.0398 2.5804 0.3854
C 6.7331 3.7392 -0.1346
C 7.8768 3.7854 -1.1380
C 6.3400 5.0186 0.2720
C 5.2988 5.2131 1.1660
C 4.8835 6.5963 1.5583
C 4.6407 4.1153 1.7006
C 4.9891 2.8064 1.3403
C 4.2345 1.7130 2.0591
H -0.9506 0.0462 -1.5272
H 0.4906 -0.8398 -2.2108
H 0.4847 0.9371 -2.2120
H -0.5655 -1.5430 0.7219
H 0.9280 -1.5635 1.7198
H 0.8935 -2.4021 0.1101
H -0.5891 1.6583 0.6509
H 0.9080 2.5024 0.0693
H 0.8623 1.6940 1.7007
H 4.0098 -1.0330 -1.7018
H 2.7822 -2.2142 -0.9837
H 3.4975 -2.3966 -2.6099
H 3.6310 -4.6563 -1.6268
H 4.3595 -6.9697 -1.5324
H 5.4241 -7.2907 -0.0968
H 6.1475 -7.0727 -1.7311
H 7.4083 -5.6134 -0.0019
H 8.8999 -4.2169 0.7047
H 8.3069 -2.7056 1.3781
H 8.9256 -2.9012 -0.4059
H 8.4386 -1.0025 -0.9534
H 8.1479 -0.7067 0.8807
H 7.7583 0.9417 -1.5175
H 8.5867 1.3768 0.1252
H 8.2416 2.8828 -1.6094
H 8.7685 4.2430 -0.6594
H 7.5676 4.4003 -2.0064
H 6.8556 5.8850 -0.1282
H 5.5039 7.3659 1.0516
H 4.9887 6.7206 2.6553
H 3.8242 6.7543 1.2660
H 3.8419 4.2889 2.4120
H 3.5838 2.1092 2.8656
H 4.9219 0.9742 2.5225
H 3.4882 1.3081 1.4104
