70
 
P 0.9654 0.0340 0.0874
C 0.1238 1.7485 0.1398
C 0.7379 2.2481 1.4294
C 2.2502 2.5708 1.1380
C 2.2913 3.9598 0.5590
C 1.5927 3.9177 -0.8032
C 0.2542 3.0833 -0.8001
C 0.4961 -0.9028 -1.4695
C 0.8871 -0.2667 -2.8260
C 2.3870 -0.4130 -3.1185
C 2.7814 -1.8914 -3.1752
C 2.4855 -2.5014 -1.8060
C 0.9848 -2.3715 -1.4586
C 0.2679 -0.8030 1.7709
C 1.0865 -1.2586 2.8714
C 2.5501 -1.2573 2.8226
C 0.5631 -1.8192 4.0741
C -0.7857 -2.0252 4.2520
C -1.6352 -1.7076 3.2045
C -1.1381 -1.1084 1.9961
Ni 3.4254 0.0340 0.0874
N 5.5254 0.0340 0.0874
C 5.4760 1.1723 -0.8582
C 6.2366 -0.9848 -0.6959
C 6.2266 0.6601 1.1796
C 5.4960 1.2390 2.2196
C 6.1391 2.0281 3.1875
C 7.5208 2.2423 3.1208
C 8.2698 1.6401 2.1116
C 7.6369 0.8476 1.1519
H -0.9569 1.5069 0.0742
H 0.6232 1.5091 2.2225
H 0.1906 3.1260 1.8188
H 2.7527 1.8842 0.4268
H 2.8614 2.5322 2.0375
H 3.3358 4.3300 0.4457
H 1.7901 4.6199 1.3018
H 2.2958 3.4679 -1.5288
H 1.4332 4.9830 -1.1227
H -0.1073 3.0147 -1.8508
H -0.4644 3.7982 -0.3269
H -0.6143 -0.9208 -1.4280
H 0.5746 0.7940 -2.8639
H 0.3411 -0.8020 -3.6422
H 2.9522 0.0727 -2.3003
H 2.6409 0.0680 -4.0862
H 3.8667 -1.9913 -3.3984
H 2.2339 -2.4265 -3.9913
H 3.1086 -1.9570 -1.0609
H 2.7679 -3.5776 -1.8334
H 0.7610 -2.8420 -0.4793
H 0.4078 -2.9368 -2.2283
H 2.8875 -0.7506 1.9273
H 2.8379 -2.3331 2.7839
H 2.9784 -0.7872 3.7300
H 1.2158 -2.1228 4.8936
H -1.1537 -2.4643 5.1885
H -2.6875 -1.9461 3.3615
H -1.8962 -0.9258 1.2518
H 5.0254 0.8828 -1.8415
H 6.2775 1.9418 -0.8849
H 4.6863 1.8380 -0.4781
H 5.5611 -1.4341 -1.4561
H 6.6731 -1.7686 -0.0538
H 7.0984 -0.5525 -1.2772
H 4.4269 1.0896 2.2353
H 5.5680 2.5013 3.9745
H 8.0142 2.8820 3.8435
H 9.3386 1.8131 2.0524
H 8.2500 0.4431 0.3588
