61
 
P 0.9774 0.0130 0.0965
C 0.2011 -1.4725 0.7971
C -0.9373 -1.4326 1.6010
C -1.4564 -2.6061 2.1490
C -0.8501 -3.8400 1.8984
C 0.2868 -3.9058 1.0933
C 0.8165 -2.7288 0.5452
C 0.4520 1.1758 1.3880
C 0.8620 1.1653 2.7308
C 0.2879 2.0791 3.6380
C -0.6830 2.9959 3.2116
C -1.0633 3.0306 1.8733
C -0.4948 2.1342 0.9707
C 0.4832 0.1704 -1.6435
C 0.8104 1.3396 -2.3857
O 1.5501 2.3299 -1.8108
C 1.9317 3.5057 -2.4373
C 0.3259 1.4715 -3.7076
C -0.4684 0.4800 -4.2756
C -0.7853 -0.6619 -3.5457
C -0.3135 -0.8183 -2.2414
Ni 3.4374 0.0130 0.0965
P 5.8974 0.0130 0.0965
C 6.7814 -0.8331 1.4440
C 6.3799 -0.8700 -1.4156
C 6.4435 1.7623 0.2138
C 5.9284 2.4078 1.4998
C 7.9880 1.8118 0.1751
C 5.9032 2.5231 -1.0116
H -1.4251 -0.4970 1.8082
H -2.3330 -2.5502 2.7741
H -1.2628 -4.7425 2.3313
H 0.7545 -4.8687 0.9047
H 1.7131 -2.8118 -0.0643
H 1.6003 0.4586 3.0800
H 0.5785 2.0739 4.6795
H -1.1447 3.6810 3.9136
H -1.8107 3.7399 1.5339
H -0.8255 2.1721 -0.0603
H 2.4876 4.1498 -1.7266
H 1.0394 4.0713 -2.7877
H 2.5914 3.2812 -3.3036
H 0.5390 2.3484 -4.3057
H -0.8469 0.6047 -5.2825
H -1.4120 -1.4236 -3.9881
H -0.5974 -1.7060 -1.6986
H 6.4131 -1.8879 1.4151
H 6.4381 -0.4358 2.4215
H 7.8769 -0.8571 1.3519
H 6.0081 -1.9140 -1.3817
H 7.4910 -0.8968 -1.4614
H 5.9925 -0.3521 -2.3132
H 6.3200 1.8759 2.3899
H 4.8187 2.3833 1.5208
H 6.2658 3.4653 1.5542
H 8.4337 1.2820 1.0407
H 8.3551 2.8584 0.2074
H 8.3791 1.3406 -0.7543
H 4.7936 2.4979 -1.0373
H 6.2818 2.0725 -1.9563
H 6.2361 3.5835 -0.9939
