32
 
P 0.9307 0.0350 -0.0630
C -0.0200 1.3833 0.6938
C 0.4478 0.1861 -1.8045
C 0.4501 -1.3738 0.9727
Ni 3.3907 0.0350 -0.0630
P 5.8507 0.0350 -0.0630
O 6.6983 -1.4369 -0.3814
C 8.0937 -1.3288 -0.3586
C 8.5298 0.0903 -0.0521
C 10.0616 0.1574 -0.0380
C 7.9059 0.9991 -1.1792
O 6.4995 0.8334 -1.4093
O 6.5007 0.2061 1.4923
C 7.9069 0.4525 1.3501
H -1.1127 1.2661 0.6280
H 0.3057 2.3314 0.2068
H 0.3056 1.4617 1.7568
H -0.6632 0.1597 -1.8606
H 0.8356 -0.6945 -2.3581
H 0.8249 1.1229 -2.2548
H -0.6608 -1.4365 0.9798
H 0.8275 -1.2703 2.0068
H 0.8393 -2.3041 0.5087
H 8.4790 -1.6548 -1.3500
H 8.4797 -2.0350 0.4095
H 10.4648 -0.1620 -1.0252
H 10.4653 -0.5411 0.7290
H 10.4108 1.1835 0.1836
H 8.4105 0.7414 -2.1367
H 8.1245 2.0644 -0.9594
H 8.4123 -0.1772 2.1155
H 8.1252 1.5137 1.5895
