82
 
P 1.2750 0.0000 0.0000
N 0.4102 1.5384 -0.2450
C 0.9564 2.5437 0.7208
C 2.4693 2.7201 0.5379
C 0.3673 3.9478 0.5535
C -1.0403 1.4183 -0.2476
C -1.4628 -0.0057 0.0277
C -2.9964 -0.0457 0.0336
C -0.9373 -0.9216 -1.1319
N 0.5467 -0.9583 -1.3309
C 0.9940 -2.3965 -1.2633
C 0.4068 -3.3614 -2.3049
C 2.4865 -2.5250 -1.3499
N 0.6214 -0.3599 1.6184
C 1.1539 -1.6734 2.1384
C 2.6727 -1.7273 2.2459
C 0.6063 -2.1171 3.4992
C -0.8785 -0.4381 1.4413
Ni 3.7350 0.0003 -0.0005
C 5.8850 0.0006 -0.0009
N 6.6814 0.4805 1.0155
C 6.3090 1.0508 2.3250
C 5.5034 -0.0108 3.0548
C 7.5390 1.4526 3.1561
C 5.4846 2.3125 2.1388
C 7.9605 0.2994 0.6182
C 7.9759 -0.2769 -0.5940
N 6.7086 -0.4637 -1.0129
C 6.3820 -1.0222 -2.3399
C 7.6360 -1.4310 -3.1582
C 5.5185 -2.2482 -2.1728
C 5.6396 0.0656 -3.1026
H 0.7658 2.1990 1.7643
H 2.7411 3.0924 -0.4685
H 2.9454 1.7632 0.6518
H 2.8729 3.4036 1.3178
H 0.5940 4.3254 -0.4646
H 0.8300 4.6256 1.3060
H -0.7187 3.9893 0.7315
H -1.4029 1.7609 -1.2433
H -1.5093 2.0561 0.5237
H -3.3871 0.2853 -0.9555
H -3.3952 0.6408 0.8106
H -3.3557 -1.0732 0.2363
H -1.3890 -0.6165 -2.1011
H -1.3582 -1.9195 -0.8913
H 0.6527 -2.8572 -0.3531
H 0.7104 -3.0939 -3.3328
H -0.6917 -3.4559 -2.2308
H 0.7990 -4.3839 -2.0746
H 2.7913 -2.1896 -2.3622
H 2.8181 -3.5687 -1.1657
H 2.9717 -1.9255 -0.5811
H 0.8463 -2.4801 1.5038
H 2.9746 -1.1357 3.1279
H 3.1846 -1.3823 1.3514
H 3.0245 -2.7730 2.3639
H 0.9258 -1.4257 4.3023
H 1.0206 -3.1318 3.7170
H -0.4926 -2.2258 3.4997
H -1.3307 0.2074 2.2251
H -1.2626 -1.4654 1.6052
H 6.0643 -0.9673 3.1421
H 4.6460 -0.1805 2.4071
H 5.1487 0.3188 4.0521
H 8.2223 0.5903 3.2917
H 7.2375 1.8252 4.1549
H 8.0806 2.2689 2.6234
H 4.6588 2.0242 1.5338
H 6.0355 3.1003 1.5858
H 5.1110 2.7104 3.1081
H 8.8595 0.5571 1.1574
H 8.8833 -0.5232 -1.1260
H 8.2023 -2.2397 -2.6415
H 8.3103 -0.5598 -3.3003
H 7.3550 -1.7978 -4.1673
H 6.0096 -3.0818 -1.6305
H 5.1161 -2.6092 -3.1472
H 4.7455 -1.8798 -1.5318
H 6.3188 0.9403 -3.2019
H 4.7380 0.3739 -2.5322
H 5.3413 -0.2956 -4.1074
