40
 
P 0.9867 -0.0819 -0.0558
C 0.2753 -1.7856 -0.3998
C -1.2364 -2.0085 -0.3522
C 0.8352 -2.3631 -1.7156
C 0.4606 0.3136 1.6767
C 0.9666 -0.6370 2.7626
C 0.8726 1.7497 2.0219
C 0.4974 1.1216 -1.4086
C 0.9769 0.7810 -2.8188
C -1.0218 1.4003 -1.4516
Ni 3.4467 -0.0819 -0.0558
N 5.5467 -0.0819 -0.0558
C 6.3767 -0.6180 -0.9641
O 7.6331 -0.4149 -0.6273
C 7.6350 0.2572 0.5058
C 6.3275 0.4746 0.8788
H 0.7154 -2.4252 0.3929
H -1.7690 -1.4755 -1.1536
H -1.6492 -1.7540 0.6412
H -1.4361 -3.0912 -0.5313
H 0.3338 -1.9497 -2.6006
H 0.6425 -3.4546 -1.7793
H 1.9341 -2.2049 -1.7925
H -0.6508 0.2820 1.6898
H 2.0726 -0.6031 2.8427
H 0.6219 -1.6737 2.5864
H 0.5387 -0.3165 3.7420
H 1.9781 1.8565 2.0107
H 0.4942 2.0285 3.0303
H 0.4308 2.4667 1.2974
H 0.9849 2.0785 -1.1304
H 0.3972 -0.0363 -3.2695
H 2.0619 0.5597 -2.8248
H 0.7809 1.6467 -3.4886
H -1.6043 0.5184 -1.7629
H -1.2486 2.1857 -2.2063
H -1.4038 1.7587 -0.4732
H 6.0546 -1.1442 -1.8521
H 8.5196 0.5776 1.0401
H 5.9692 0.9954 1.7569
