43
 
C 0.9010 -0.6430 -0.0020
N 0.7943 0.7233 -0.0118
C 1.8144 1.7527 -0.0479
C 3.0904 1.0828 -0.0996
C -0.5113 1.0196 0.0088
C -1.2134 -0.1586 0.0269
N -0.3281 -1.1806 0.0186
C -0.6293 -2.5991 0.0325
C 0.6633 -3.4240 0.0152
Ni 2.6584 -1.8814 -0.0135
C 4.4159 -3.1199 -0.0250
N 5.7372 -2.7446 -0.0305
C 6.3551 -1.4374 -0.0213
C 5.2893 -0.4707 0.0441
C 6.4786 -3.8579 -0.0459
C 5.6360 -4.9266 -0.0438
N 4.3585 -4.4749 -0.0293
C 3.1463 -5.2844 -0.0166
C 3.4282 -6.7822 -0.0230
H 1.7823 2.3840 0.8651
H 1.7231 2.3760 -0.9631
H 3.1049 0.4409 0.8041
H 3.9170 1.8163 -0.1254
H 3.0511 0.4578 -1.0159
H -0.9047 2.0304 0.0055
H -2.2900 -0.2471 0.0447
H -1.2460 -2.8426 -0.8595
H -1.2173 -2.8322 0.9471
H 1.2618 -3.2030 -0.8810
H 0.3822 -4.4942 0.0210
H 1.2867 -3.2010 0.8982
H 6.9396 -1.2695 -0.9519
H 6.9967 -1.3025 0.8755
H 4.6509 -0.7014 -0.8306
H 5.7031 0.5543 0.0329
H 4.7384 -0.7000 0.9793
H 7.5621 -3.8765 -0.0543
H 5.9541 -5.9589 -0.0499
H 2.5538 -5.0463 -0.9212
H 2.5797 -5.0509 0.9067
H 3.9885 -7.0563 -0.9420
H 2.4690 -7.3376 -0.0064
H 4.0199 -7.0595 0.8754
