71
 
P 0.9940 -0.0439 0.0897
C 0.2281 -1.3059 -1.0775
C -1.2854 -1.5374 -1.1015
C 0.7219 -1.0753 -2.5139
C 0.4864 -0.6681 1.7632
C 0.9792 -2.0645 2.1462
C 0.9068 0.3357 2.8432
C 0.4000 1.6839 -0.2922
C 0.7769 2.1984 -1.6693
C -1.1109 1.9269 -0.0620
Ni 3.4540 -0.0439 0.0897
C 5.6040 -0.0439 0.0897
N 6.3768 -1.1571 0.0847
C 5.8725 -2.5289 0.0867
C 4.9498 -2.7839 -1.1118
C 5.6582 -2.6328 -2.4615
C 4.6730 -2.9117 -3.5942
C 7.6554 -0.7026 0.0860
C 7.6309 0.6676 0.0908
C 8.8022 1.4334 0.0891
C 10.0310 0.7551 0.0889
C 10.0667 -0.6553 0.0883
C 8.8705 -1.4056 0.0857
N 6.3491 1.0854 0.0986
C 5.8827 2.4679 0.0865
C 4.5344 2.6562 0.7888
C 4.1726 4.1427 0.7296
C 2.8633 4.4721 1.4234
H 0.6870 -2.2729 -0.7803
H -1.8395 -0.6502 -1.4432
H -1.6627 -1.9017 -0.1274
H -1.5044 -2.3369 -1.8500
H 0.2108 -0.2312 -2.9909
H 0.4816 -1.9456 -3.1602
H 1.8225 -0.9209 -2.5341
H -0.6256 -0.6959 1.7651
H 2.0846 -2.0932 2.2267
H 0.6193 -2.8323 1.4357
H 0.5518 -2.3293 3.1427
H 2.0125 0.4264 2.8867
H 0.5300 0.0094 3.8381
H 0.4663 1.3354 2.6442
H 0.9003 2.3032 0.4546
H 0.1595 1.7195 -2.4395
H 1.8596 2.0554 -1.8485
H 0.5285 3.2788 -1.7459
H -1.7470 1.3448 -0.7472
H -1.3537 2.9971 -0.2588
H -1.4172 1.7238 0.9857
H 5.2780 -2.6824 1.0134
H 6.7073 -3.2599 0.0864
H 4.0933 -2.0754 -1.0715
H 4.5507 -3.8174 -1.0288
H 6.5055 -3.3499 -2.5257
H 6.0554 -1.6002 -2.5748
H 4.2715 -3.9442 -3.5062
H 5.1788 -2.8068 -4.5759
H 3.8263 -2.1932 -3.5500
H 8.7797 2.5149 0.0901
H 10.9556 1.3207 0.0903
H 11.0261 -1.1583 0.0894
H 8.9150 -2.4854 0.0847
H 5.8150 2.8075 -0.9688
H 6.6268 3.1019 0.6141
H 4.6076 2.3013 1.8422
H 3.7477 2.0782 0.2666
H 4.0882 4.4356 -0.3395
H 4.9742 4.7393 1.2128
H 2.0449 3.9153 0.9611
H 2.6354 5.5485 1.2872
H 2.9185 4.2365 2.5063
