99
 
C 0.9010 -0.6430 -0.0020
N 0.3910 0.0031 -1.1605
C 0.7310 0.0452 -2.6652
C 1.2976 -1.3102 -3.1979
C -0.4677 0.5937 -3.5943
C 1.8335 1.0557 -2.9501
C -0.7142 0.6375 -0.7126
C -0.9003 0.4058 0.6053
N 0.0549 -0.4167 1.0854
C 0.0893 -0.8349 2.5400
C -1.0668 -0.2029 3.3584
C 0.1069 -2.3684 2.6611
C 1.3099 -0.3113 3.2397
Ni 2.6584 -1.8814 -0.0135
C 4.4159 -3.1199 -0.0250
N 5.6599 -2.6355 -0.2816
C 6.1759 -1.2750 -0.2802
C 5.6031 -0.3235 0.6594
C 4.3165 -0.5310 1.5424
C 4.0472 -1.9012 2.2511
C 4.3193 0.3994 2.7879
C 6.3108 0.8907 0.8648
C 7.5198 1.1615 0.2661
C 8.0492 0.2910 -0.6464
C 7.4082 -0.9138 -0.9908
C 8.1411 -1.7258 -2.0957
C 8.2848 -0.9305 -3.4117
C 9.5542 -2.1163 -1.6404
C 6.4568 -3.7215 -0.3127
C 5.7480 -4.8393 0.0221
N 4.4485 -4.5240 0.1876
C 3.4190 -5.6128 0.3257
C 3.4716 -6.8035 1.1946
C 4.5654 -7.1638 2.1987
C 4.0368 -7.4056 3.6314
C 5.2267 -8.4720 1.7310
C 2.4491 -7.8030 1.0964
C 1.4365 -7.7363 0.1753
C 1.3983 -6.6716 -0.6796
C 2.3562 -5.6295 -0.6105
C 2.1939 -4.5423 -1.5985
C 2.4981 -5.0484 -3.0644
C 0.8775 -3.8643 -1.1706
H 0.6359 -2.1956 -3.1949
H 2.2220 -1.5437 -2.6170
H 1.5930 -1.2470 -4.2670
H -1.4173 0.0171 -3.6806
H -0.1491 0.7446 -4.6549
H -0.7716 1.6252 -3.2953
H 2.7652 0.7854 -2.4293
H 1.4965 2.0759 -2.6809
H 2.0381 1.0530 -4.0526
H -1.3936 1.2498 -1.2823
H -1.7193 0.8386 1.1575
H -2.0513 -0.5409 2.9912
H -1.0071 0.9109 3.2520
H -0.9769 -0.3900 4.4504
H -0.8228 -2.8108 2.2634
H 0.2083 -2.6712 3.7316
H 0.9784 -2.7896 2.1158
H 1.2663 0.7356 3.5964
H 2.0102 -0.3230 2.4399
H 1.6047 -0.9332 4.1285
H 3.4675 -0.2648 0.8581
H 4.9025 -2.3348 2.7915
H 3.3776 -2.6205 1.7988
H 3.1399 -1.9533 2.8380
H 5.2940 0.3386 3.3094
H 3.6636 0.1033 3.6270
H 3.9638 1.4026 2.4909
H 5.9683 1.6598 1.5370
H 8.0637 2.0670 0.5087
H 8.9983 0.5811 -1.0759
H 7.5911 -2.6419 -2.3803
H 8.7851 0.0506 -3.2605
H 7.2942 -0.7682 -3.8798
H 8.9157 -1.5012 -4.1317
H 10.1722 -1.2151 -1.4502
H 10.1024 -2.6968 -2.4148
H 9.4728 -2.7311 -0.7285
H 7.5104 -3.7395 -0.5039
H 6.1928 -5.8206 0.0859
H 5.3297 -6.3675 2.2285
H 3.2463 -8.1888 3.6710
H 3.6308 -6.4759 4.0709
H 4.8640 -7.7858 4.2711
H 4.5111 -9.3231 1.7913
H 6.0861 -8.7655 2.3654
H 5.5670 -8.3381 0.6858
H 2.4295 -8.6953 1.7104
H 0.6930 -8.5290 0.1045
H 0.6035 -6.6670 -1.4178
H 2.8976 -3.7445 -1.5324
H 2.7468 -6.1399 -3.1332
H 3.4688 -4.6077 -3.3938
H 1.8138 -4.7484 -3.8810
H 0.1075 -4.3359 -1.7576
H 0.9123 -2.7828 -1.2439
H 0.5014 -4.0117 -0.1226
