54
 
C 0.9010 -0.6430 -0.0020
N -0.4383 -0.9867 0.0584
C -0.8649 -2.3956 0.0658
C -0.4963 -2.8518 1.4812
C -1.7057 -2.6884 2.4297
C -2.7519 -3.7222 2.0420
C -3.3134 -3.3616 0.6652
C -2.1904 -3.1610 -0.3766
C -1.1140 0.1727 0.2331
C -0.1913 1.2186 0.2173
N 1.0452 0.6983 0.0268
C 2.3770 1.3049 -0.1272
C 2.8423 0.9368 -1.5471
C 1.9781 1.6938 -2.5772
C 2.2689 3.1886 -2.4534
C 1.8638 3.6914 -1.0609
C 2.5123 2.8503 0.0574
Ni 2.6584 -1.8814 -0.0135
N 4.3750 -3.0911 -0.0247
C 4.4435 -2.8677 -1.4824
N 4.3719 -4.4455 0.1971
C 5.5877 -4.8704 0.3076
C 6.4834 -3.8032 0.3168
C 5.7030 -2.6675 0.2123
H -0.2794 -2.7022 -0.8260
H 0.3245 -2.2345 1.9046
H -0.1482 -3.8957 1.4510
H -2.1548 -1.6637 2.3900
H -1.3819 -2.8764 3.4701
H -3.5762 -3.7541 2.7869
H -2.2634 -4.7250 2.0401
H -3.9140 -2.4381 0.7413
H -3.9928 -4.1934 0.3453
H -2.6269 -2.8887 -1.3623
H -1.8158 -4.2078 -0.5181
H -2.1819 0.2624 0.3958
H -0.4205 2.2691 0.3415
H 3.0373 0.8258 0.6310
H 2.7339 -0.1527 -1.7094
H 3.9145 1.1823 -1.6874
H 0.8895 1.5091 -2.4129
H 2.2213 1.3493 -3.6007
H 1.7104 3.7540 -3.2298
H 3.3567 3.3449 -2.6268
H 0.7630 3.6516 -0.9732
H 2.1723 4.7575 -0.9572
H 2.1527 3.1879 1.0535
H 3.6038 3.0695 0.0189
H 3.9373 -3.6737 -2.0585
H 3.5321 -2.3179 -1.7592
H 4.8108 -1.8574 -1.8076
H 5.8600 -5.9138 0.3885
H 7.5640 -3.8296 0.3904
H 6.0653 -1.6432 0.1840
