95
 
C 0.9010 -0.6430 -0.0020
N -0.1504 -0.6431 -0.9684
C -0.3802 -1.2652 -2.3437
C 0.5147 -2.2214 -2.8744
C 1.6579 -2.6150 -2.1375
C 0.4839 -2.7061 -4.1719
C -0.3842 -2.1983 -5.0890
C -0.0803 -2.5173 -6.5234
C -1.3787 -1.3305 -4.6581
C -1.4368 -0.8995 -3.2980
C -2.6104 -0.0255 -3.0084
C -0.9669 0.3113 -0.4959
C -0.5079 0.8275 0.6508
N 0.6867 0.2987 0.9970
C 1.2975 0.5233 2.3532
C 1.9049 -0.5519 3.1021
C 2.1958 -1.9029 2.6298
C 2.2525 -0.4377 4.4447
C 2.0715 0.7250 5.1370
C 2.3793 0.7184 6.6089
C 1.5880 1.8474 4.4564
C 1.1888 1.7792 3.0871
C 0.6654 3.0710 2.4773
Ni 2.6584 -1.8814 -0.0135
C 4.4159 -3.1199 -0.0250
N 5.7019 -2.5763 -0.0336
C 6.3262 -1.2598 -0.2869
C 7.7197 -0.9921 0.0639
C 8.7001 -1.8830 0.8203
C 8.3337 0.1724 -0.3742
C 7.6993 1.0579 -1.2136
C 8.5132 2.1534 -1.8095
C 6.3702 0.8612 -1.5517
C 5.6652 -0.2527 -1.0682
C 4.2505 -0.3449 -1.4842
C 6.5004 -3.6418 0.0080
C 5.8035 -4.7498 0.0970
N 4.4810 -4.5091 -0.0365
C 3.4892 -5.5960 -0.2376
C 2.1496 -5.5800 0.2412
C 1.6527 -4.6358 1.2400
C 1.2152 -6.5336 -0.1698
C 1.5643 -7.5523 -1.0376
C 0.5026 -8.4749 -1.5451
C 2.8910 -7.6773 -1.4441
C 3.8456 -6.7281 -1.0575
C 5.2326 -6.9002 -1.5895
H 1.2227 -2.8274 -1.1775
H 2.2368 -1.7074 -2.3735
H 2.1691 -3.5148 -2.5221
H 1.2407 -3.4013 -4.5145
H 1.0332 -2.4903 -6.6038
H -0.3255 -1.6813 -7.2108
H -0.3719 -3.5432 -6.8197
H -2.0824 -0.9539 -5.3985
H -3.3550 -0.0027 -3.8322
H -2.2821 1.0222 -2.8668
H -3.1380 -0.4916 -2.1473
H -1.8776 0.6857 -0.8774
H -1.1609 1.4956 1.1554
H 1.7305 -2.0649 1.6948
H 1.7709 -2.6916 3.2880
H 3.3100 -2.0017 2.6067
H 2.6339 -1.3082 4.9818
H 2.8239 -0.2510 6.9448
H 1.4224 0.8247 7.1615
H 3.0859 1.5274 6.8655
H 1.5157 2.7731 5.0157
H 0.3837 3.8807 3.1862
H -0.3017 2.9284 2.0727
H 1.3297 3.4679 1.6772
H 8.2040 -2.5470 1.5430
H 9.4076 -1.3016 1.4435
H 9.3494 -2.4453 0.0932
H 9.3599 0.3792 -0.0934
H 9.5796 1.8533 -1.7588
H 8.3972 3.1058 -1.2564
H 8.3160 2.2092 -2.9008
H 5.8945 1.5590 -2.2352
H 3.9186 0.5090 -2.1218
H 3.6621 -0.2852 -0.5394
H 4.1598 -1.2628 -2.0882
H 7.5584 -3.7024 -0.0949
H 6.3596 -5.6454 0.1911
H 2.4996 -4.0316 1.5444
H 1.3424 -5.2350 2.1286
H 0.7788 -4.0680 0.8538
H 0.1885 -6.4627 0.1751
H -0.4672 -8.3017 -1.0288
H 0.7965 -9.5341 -1.4184
H 0.3429 -8.2373 -2.6191
H 3.1843 -8.5032 -2.0819
H 5.4978 -7.6751 -2.3230
H 5.8254 -7.2596 -0.7279
H 5.4775 -5.9298 -2.0735
