63
 
C 0.9010 -0.6430 -0.0020
N -0.3806 -1.1603 0.0722
C -0.8708 -2.5497 0.0837
C -0.1189 -3.5633 0.7149
C 1.1397 -3.3260 1.4310
C -0.5434 -4.8960 0.7332
C -1.7250 -5.2886 0.1378
C -2.1427 -6.7305 0.2073
C -2.5055 -4.3307 -0.5030
C -2.1143 -2.9696 -0.5447
C -3.0549 -2.0616 -1.3087
C -1.1707 -0.0822 0.0771
C -0.4115 1.0318 0.0288
N 0.9075 0.7240 -0.0614
C 1.9972 1.7331 -0.0923
C 3.2978 1.5854 0.5212
C 3.7494 0.4111 1.3376
C 4.2616 2.6256 0.4145
C 3.9820 3.8088 -0.2711
C 4.9668 4.9307 -0.4266
C 2.7467 3.9660 -0.8514
C 1.7763 2.9708 -0.7770
C 0.5243 3.2672 -1.5125
Ni 2.6584 -1.8814 -0.0135
N 4.3750 -3.0911 -0.0247
C 5.5666 -2.6546 -0.5752
O 5.7253 -1.4467 -1.1669
C 4.7941 -0.7678 -1.9202
C 6.6835 -3.5137 -0.6331
C 6.5998 -4.8158 -0.1595
C 5.4146 -5.2524 0.3887
C 4.3278 -4.3887 0.4509
H 1.4977 -2.3367 1.4814
H 1.8333 -3.8957 0.8768
H 1.0277 -3.6643 2.4847
H 0.0623 -5.6419 1.2366
H -1.3942 -7.3419 0.7597
H -2.2412 -7.1536 -0.8130
H -3.1075 -6.8121 0.7490
H -3.4299 -4.6566 -0.9711
H -3.9079 -2.6137 -1.7617
H -2.5168 -1.5565 -2.1381
H -3.5588 -1.3478 -0.6409
H -2.2342 -0.0461 0.1552
H -0.8795 1.9856 0.1005
H 2.9745 -0.3485 1.4818
H 4.0484 0.7672 2.3493
H 4.6464 -0.0396 0.8642
H 5.2389 2.5200 0.8762
H 5.9379 4.7074 0.0558
H 4.5452 5.8632 0.0105
H 5.1360 5.1056 -1.5127
H 2.5360 4.8901 -1.3795
H 0.6393 4.0837 -2.2455
H -0.2066 3.6551 -0.7800
H 0.2546 2.3589 -2.0902
H 5.2874 0.1362 -2.3350
H 3.9311 -0.4308 -1.3423
H 4.4704 -1.3972 -2.7778
H 7.6097 -3.1903 -1.0897
H 7.4414 -5.4944 -0.2287
H 5.3228 -6.2679 0.7593
H 3.4849 -4.8501 0.8962
