57
 
P -1.3500 0.0010 0.7980
N -1.1548 -1.1724 -0.5254
C -2.3550 -1.1687 -1.3596
C 0.0549 -1.3841 -1.3275
C 1.2972 -1.2302 -0.5386
N 1.7912 0.1612 -0.2636
C 1.1559 1.5324 -0.3291
C -0.1986 1.7137 -1.0284
N -1.4283 1.4429 -0.2098
C -1.7981 2.5446 0.6814
N -0.0034 -0.6594 1.8862
C -0.4009 -1.6079 2.9370
C 1.3619 -0.0331 2.1275
C 2.4543 0.0297 1.0060
Ni -3.3226 0.0026 2.2679
C -5.0466 0.0040 3.5525
N -6.1018 0.8829 3.6453
C -6.3779 2.0973 2.8857
C -6.9155 0.4070 4.6368
C -8.2186 0.9920 5.1510
C -6.3646 -0.7434 5.1394
C -6.9429 -1.5880 6.2530
N -5.2158 -0.9916 4.4696
C -4.3323 -2.1281 4.7042
H -3.2711 -1.1183 -0.7300
H -2.4129 -2.1043 -1.9527
H -2.3342 -0.2910 -2.0378
H 0.0948 -0.8529 -2.2897
H 0.0330 -2.4686 -1.5863
H 2.1329 -1.8128 -0.9791
H 1.1321 -1.8689 0.3598
H 1.9172 2.1894 -0.8108
H 1.0717 2.0737 0.6326
H -0.1913 1.1870 -1.9925
H -0.2303 2.7832 -1.3355
H -1.8818 3.4942 0.1109
H -1.0500 2.6780 1.4938
H -2.7957 2.3089 1.1460
H -1.3892 -1.3603 3.3776
H 0.3179 -1.6162 3.7955
H -0.3642 -2.6254 2.5056
H 1.1573 0.9960 2.3992
H 1.9371 -0.5942 2.9029
H 3.1501 -0.8557 0.9702
H 3.1812 0.8604 1.1805
H -5.5892 2.2948 2.1354
H -6.4519 2.9600 3.5856
H -7.3620 1.9950 2.3750
H -8.5330 1.9230 4.6435
H -8.1291 1.2054 6.2405
H -9.0351 0.2431 5.0357
H -7.8963 -1.1768 6.6479
H -6.2296 -1.6356 7.1012
H -7.1537 -2.6120 5.8831
H -4.7293 -2.7773 5.5161
H -3.3331 -1.7692 5.0173
H -4.2597 -2.7415 3.7850
