50
 
C 0.9010 -0.6430 -0.0020
N -0.3468 -1.1176 0.0440
C -0.7000 -2.5321 0.0579
C 0.5971 -3.4031 0.0501
C -1.5582 -2.8401 1.2938
C -1.1586 -0.0367 0.0295
C -0.3613 1.0913 -0.0069
N 0.9278 0.6878 -0.0380
C 2.1345 1.4984 -0.0697
C 3.4074 0.5811 -0.1176
C 2.0755 2.4274 -1.2866
Ni 2.6584 -1.8814 -0.0135
N 4.3750 -3.0911 -0.0247
C 5.2931 -2.8579 -1.0038
C 6.4222 -3.6758 -1.1309
C 6.6941 -4.6257 -0.1527
C 5.8178 -4.7730 0.9214
C 6.1614 -5.5919 2.0003
C 5.3294 -5.6711 3.1124
C 4.1110 -4.9625 3.1556
C 3.1933 -5.0300 4.3370
O 2.1560 -4.3834 4.3187
C 3.4438 -5.8799 5.5569
C 3.7652 -4.1481 2.0514
C 4.6071 -4.0390 0.9367
H -1.3134 -2.7406 -0.8506
H 1.1673 -3.2250 0.9556
H 1.2792 -3.1743 -0.7714
H 0.2902 -4.4680 -0.0214
H -0.9817 -2.6350 2.2202
H -1.8786 -3.9024 1.2888
H -2.4764 -2.2105 1.3089
H -2.2412 -0.0565 0.0431
H -0.6985 2.1206 -0.0170
H 2.1388 2.1366 0.8476
H 3.4335 -0.0510 -1.0127
H 3.4742 -0.1284 0.7114
H 4.2880 1.2621 -0.0919
H 2.0815 1.8211 -2.2152
H 2.9340 3.1281 -1.2812
H 1.1434 3.0384 -1.2773
H 5.0779 -2.1274 -1.7717
H 7.0927 -3.5680 -1.9737
H 7.6023 -5.2152 -0.2125
H 7.1018 -6.1320 2.0112
H 5.6797 -6.2809 3.9277
H 4.3951 -6.4355 5.5506
H 2.6293 -6.6287 5.6380
H 3.4424 -5.2408 6.4642
H 2.8775 -3.5468 2.0965
