56
 
C 0.9010 -0.6430 -0.0020
N 0.4504 0.0191 1.0624
C 1.0804 -0.0072 2.3748
C 2.3605 -0.9022 2.3249
C 1.3783 1.4294 2.8273
C -0.6736 0.6524 0.6575
C -0.8657 0.3634 -0.6827
N 0.1298 -0.4597 -1.0741
C 0.3843 -1.0383 -2.3873
C 1.6802 -1.8984 -2.3460
C -0.8252 -1.8702 -2.8214
Ni 2.6584 -1.8814 -0.0135
P 4.6693 -3.2985 -0.0267
N 6.2446 -2.4292 -0.0217
C 7.5534 -3.0779 -0.0908
C 6.1764 -1.2696 -0.9438
N 4.7824 -4.1396 1.5475
C 4.7975 -3.3313 2.7646
C 3.6978 -5.1397 1.6230
N 4.6356 -4.1886 -1.5970
C 4.7189 -3.4298 -2.8432
C 5.5277 -5.3644 -1.6588
H 0.3594 -0.4429 3.1046
H 3.1042 -0.5831 1.5843
H 2.0998 -1.9318 2.0430
H 2.8147 -0.8836 3.3385
H 2.0773 1.9250 2.1237
H 1.8061 1.4385 3.8509
H 0.4366 2.0252 2.8602
H -1.3042 1.2774 1.2766
H -1.6671 0.7230 -1.3159
H 0.5183 -0.2057 -3.1170
H 1.6107 -2.7409 -1.6444
H 2.5366 -1.2898 -2.0223
H 1.8644 -2.2838 -3.3702
H -0.9913 -2.6962 -2.0996
H -0.6699 -2.2867 -3.8378
H -1.7408 -1.2380 -2.8499
H 7.6974 -3.7688 0.7580
H 8.3378 -2.2887 0.0132
H 7.7576 -3.5177 -1.0797
H 5.1794 -0.7733 -0.9153
H 6.4038 -1.5401 -1.9894
H 6.9309 -0.5020 -0.6770
H 5.6307 -2.6067 2.7567
H 4.9557 -4.0069 3.6384
H 3.8290 -2.8575 2.9457
H 3.7803 -5.8791 0.7997
H 2.6941 -4.6613 1.5690
H 3.7569 -5.7270 2.5664
H 4.0963 -2.5357 -2.8066
H 4.3487 -4.0673 -3.6776
H 5.7606 -3.1760 -3.1039
H 5.3727 -6.0510 -0.8064
H 6.5911 -5.0913 -1.7180
H 5.3272 -5.9495 -2.5845
