38
 
C 0.8970 -0.6457 -0.0036
N 0.3020 -0.1770 1.1056
C 0.7705 -0.3489 2.4726
C -0.7553 0.5452 0.6870
C -0.7828 0.5036 -0.6963
N 0.2610 -0.2389 -1.1120
C 0.6011 -0.6209 -2.4739
Ni 2.6586 -1.8787 -0.0090
P 4.6647 -3.2852 -0.0282
C 5.7938 -3.0971 -1.4449
C 5.7019 -2.7367 1.3555
C 4.1259 -5.0479 -0.1283
C 3.3321 -5.2111 -1.4293
C 5.3150 -6.0186 -0.1161
C 3.1770 -5.3463 1.0536
H 1.7019 -0.9592 2.4870
H -0.0079 -0.8240 3.1009
H 1.0141 0.6558 2.8861
H -1.4444 1.0744 1.3316
H -1.5148 0.9667 -1.3447
H -0.1411 -0.2066 -3.1891
H 0.5627 -1.7307 -2.5481
H 1.6208 -0.2756 -2.7356
H 6.0789 -2.0179 -1.4934
H 5.2058 -3.2797 -2.3664
H 6.6967 -3.7247 -1.4299
H 5.9854 -1.6651 1.3206
H 6.6028 -3.3900 1.4028
H 5.1335 -2.9468 2.2797
H 3.9588 -4.9878 -2.3175
H 2.4608 -4.5176 -1.4464
H 2.9309 -6.2416 -1.5295
H 5.9819 -5.8030 -0.9782
H 4.9354 -7.0607 -0.2018
H 5.8856 -5.9350 0.8299
H 2.3126 -4.6434 1.0404
H 3.6824 -5.2481 2.0340
H 2.7682 -6.3766 0.9869
