39
 
C 0.9010 -0.6430 -0.0020
N -0.3434 -1.1091 -0.0094
C -0.6865 -2.5280 -0.0100
C 0.6206 -3.4025 0.0512
C -1.6327 -2.8111 1.1682
C -1.1413 -0.0166 -0.0241
C -0.3272 1.1065 -0.0003
N 0.9564 0.6864 0.0037
C 2.1947 1.4633 0.0340
C 3.4417 0.5174 0.0252
C 2.2329 2.4101 -1.1701
Ni 2.6584 -1.8814 -0.0135
N 4.3750 -3.0911 -0.0247
C 4.7463 -3.7009 1.1327
F 4.0470 -3.4641 2.2693
C 5.9066 -4.4786 1.1753
C 6.6293 -4.6880 -0.0005
F 7.7353 -5.4723 0.0123
C 6.2086 -4.0863 -1.1890
C 5.0887 -3.2477 -1.1717
F 4.6497 -2.6776 -2.3201
H -1.2458 -2.7582 -0.9459
H 1.2415 -3.1837 0.9313
H 1.2726 -3.2427 -0.8189
H 0.3150 -4.4692 0.0737
H -1.1408 -2.5720 2.1332
H -1.9614 -3.8702 1.1669
H -2.5510 -2.1839 1.0861
H -2.2236 -0.0255 -0.0394
H -0.6487 2.1405 0.0111
H 2.1916 2.0771 0.9650
H 3.4973 -0.0687 -0.9055
H 3.4380 -0.1990 0.8561
H 4.3520 1.1430 0.1255
H 2.2407 1.8218 -2.1114
H 3.1344 3.0556 -1.1301
H 1.3392 3.0725 -1.1782
H 6.2409 -4.9140 2.1086
H 6.7447 -4.2681 -2.1117
