60
 
P 1.0170 0.0640 -0.0749
C 0.1965 1.7722 0.5194
C -1.3428 1.8601 0.5528
C 0.6526 2.2379 1.9363
C 0.6561 2.9584 -0.3626
C 0.5463 -0.2021 -1.9655
C 1.1267 0.8438 -2.9420
C 1.0857 -1.5440 -2.5193
C -0.9882 -0.2711 -2.2334
C 0.4926 -1.2887 1.2082
C -1.0476 -1.4290 1.2914
C 1.0038 -2.6870 0.7994
C 1.0113 -1.0820 2.6435
Ni 3.4770 0.0640 -0.0749
N 5.5770 0.0640 -0.0749
C 6.3029 1.2440 -0.2129
N 5.6651 2.5552 -0.3319
C 4.2353 2.7764 -0.3108
C 6.3862 3.8122 -0.5261
C 7.7148 1.1345 -0.2815
C 8.3347 -0.1064 -0.2435
C 7.5735 -1.2581 -0.1257
C 6.1867 -1.1529 -0.0361
H -1.8054 1.3125 1.3709
H -1.8240 1.6041 -0.3748
H -1.6643 2.9061 0.7449
H 0.1997 1.6791 2.7559
H 0.2522 3.2580 2.1530
H 1.7562 2.3068 2.0480
H 0.2427 2.9278 -1.3531
H 1.7438 3.0952 -0.3667
H 0.2425 3.9285 -0.0092
H 2.2319 0.8636 -2.9007
H 0.7347 1.8445 -2.8710
H 0.8079 0.6012 -3.9816
H 2.1882 -1.6072 -2.4480
H 0.8119 -1.6494 -3.5971
H 0.6100 -2.4283 -2.0837
H -1.5082 0.6684 -2.0694
H -1.4917 -1.1040 -1.7120
H -1.2056 -0.4498 -3.3077
H -1.5132 -1.5803 0.3082
H -1.5166 -0.5953 1.8078
H -1.3512 -2.2974 1.9121
H 0.6167 -3.0077 -0.1673
H 0.6051 -3.4628 1.4959
H 2.1092 -2.7536 0.8203
H 0.5955 -0.2126 3.1381
H 2.1171 -1.0477 2.6802
H 0.6596 -1.9147 3.2959
H 3.6380 1.9363 -0.1174
H 3.9060 3.1985 -1.2846
H 3.9746 3.4752 0.5117
H 7.4770 3.7517 -0.5679
H 6.1389 4.5119 0.3027
H 6.0592 4.2791 -1.4811
H 8.3805 1.9690 -0.3868
H 9.4137 -0.1671 -0.3213
H 8.0598 -2.2242 -0.1162
H 5.5875 -2.0495 0.0386
