71
 
C 1.0240 -0.6530 -0.0550
N -0.0194 -1.0526 0.5632
C -0.1716 -2.3683 1.1286
C -1.0409 -0.0323 0.5879
C -0.3063 1.2161 0.0922
N 0.8843 0.6756 -0.5211
C 1.7234 1.3784 -1.4458
C 1.3949 2.6938 -1.8372
C 2.1633 3.3791 -2.7772
C 3.2807 2.7710 -3.3422
C 3.6270 1.4703 -2.9700
C 2.8505 0.7710 -2.0298
Ni 2.7802 -1.8697 -0.2955
P 4.7896 -3.2619 -0.5706
C 5.4851 -3.1349 -2.3412
C 5.8700 -1.6805 -2.6762
C 6.6771 -4.0243 -2.7477
C 4.3113 -3.4850 -3.2804
C 6.0349 -2.6383 0.7100
C 5.3845 -2.8196 2.0895
C 7.3332 -3.4897 0.7354
C 6.4283 -1.1608 0.5657
C 4.3284 -5.0015 -0.4522
C 3.0349 -5.4047 -0.1557
C 2.7546 -6.7669 0.0406
C 3.7660 -7.7708 -0.0672
N 3.5150 -9.1738 0.2311
C 2.2160 -9.6692 0.6681
C 4.5590 -10.2018 0.2255
C 5.0555 -7.3228 -0.4222
C 5.3253 -5.9751 -0.5807
H 0.7622 -2.9682 0.9716
H -1.0400 -2.8739 0.6529
H -0.3793 -2.2700 2.2167
H -1.4777 0.1508 1.5922
H -1.8340 -0.3344 -0.1327
H 0.0410 1.8308 0.9539
H -0.9643 1.8099 -0.5749
H 0.5333 3.2013 -1.4325
H 1.8838 4.3828 -3.0703
H 3.8715 3.3090 -4.0731
H 4.4940 1.0111 -3.4260
H 3.1145 -0.2343 -1.7768
H 6.8187 -1.3800 -2.2234
H 5.0692 -0.9847 -2.3795
H 6.0531 -1.5516 -3.7648
H 7.5853 -3.8111 -2.1693
H 6.9508 -3.8266 -3.8056
H 6.4312 -5.0963 -2.7420
H 3.4453 -2.8102 -3.0995
H 3.9783 -4.5331 -3.1358
H 4.6099 -3.3699 -4.3464
H 5.1231 -3.8868 2.2614
H 4.4685 -2.2026 2.1776
H 6.0933 -2.5178 2.8945
H 7.1232 -4.5597 0.9364
H 8.0139 -3.1550 1.5477
H 7.9277 -3.3983 -0.1831
H 5.5313 -0.5135 0.5076
H 7.0949 -0.9793 -0.2822
H 7.0497 -0.8483 1.4334
H 2.2550 -4.6624 -0.0315
H 1.7382 -6.9763 0.3042
H 1.4154 -8.9232 0.7119
H 2.3118 -10.0822 1.6952
H 1.8688 -10.4692 -0.0170
H 5.5671 -9.8748 -0.0576
H 4.2864 -11.0187 -0.4747
H 4.6630 -10.6262 1.2475
H 5.9074 -7.9644 -0.5549
H 6.3502 -5.7156 -0.7737
