66
 
P 0.9626 0.0927 -0.0021
C 0.1945 -0.1577 1.7981
C -1.3428 -0.1875 1.9161
C 0.6937 -1.4481 2.5137
C 0.6730 0.9470 2.7714
C 0.4915 1.8940 -0.6221
C 1.1007 3.0477 0.2017
C 1.0032 2.1749 -2.0572
C -1.0438 2.1473 -0.7092
C 0.4328 -1.4271 -1.0809
C -1.1081 -1.5470 -1.1797
C 0.9172 -1.2854 -2.5408
C 0.9712 -2.7932 -0.6168
Ni 3.4226 0.0927 -0.0021
P 5.8826 0.0927 -0.0021
O 7.0452 0.8164 -1.0206
C 6.4698 2.0949 -1.3244
C 7.1616 2.8203 -2.4693
O 6.3149 1.1055 1.3034
C 5.9891 0.5048 2.5216
C 6.5917 1.3609 3.6338
O 6.3332 -1.5312 -0.2697
C 5.7877 -1.9575 -1.4902
C 6.2123 -3.4004 -1.7448
H -1.8048 -1.0875 1.5199
H -1.8344 0.6786 1.5054
H -1.6495 -0.1913 2.9825
H 0.2648 -2.3711 2.1273
H 0.3154 -1.4765 3.5637
H 1.8021 -1.5121 2.5750
H 0.1949 1.8940 2.5688
H 1.7832 1.0100 2.8442
H 0.2953 0.7715 3.8042
H 2.2064 3.0097 0.1838
H 0.7579 3.1571 1.2166
H 0.7646 4.0230 -0.2197
H 2.1047 2.0836 -2.1278
H 0.7284 3.2133 -2.3633
H 0.5063 1.5838 -2.8328
H -1.5458 2.1620 0.2537
H -1.5610 1.4774 -1.4202
H -1.2649 3.1703 -1.0790
H -1.5854 -0.6090 -1.4982
H -1.5598 -1.9120 -0.2602
H -1.4162 -2.3181 -1.9159
H 0.5094 -0.4035 -3.0327
H 0.5165 -2.1198 -3.1641
H 2.0208 -1.3068 -2.6264
H 0.5653 -3.1228 0.3324
H 2.0782 -2.8107 -0.5880
H 0.6209 -3.5925 -1.3103
H 6.5706 2.7607 -0.4405
H 5.3862 2.0386 -1.6175
H 8.2353 2.9602 -2.2394
H 6.6969 3.8291 -2.5839
H 7.0345 2.2762 -3.4273
H 6.4068 -0.5246 2.6184
H 4.8863 0.5070 2.6327
H 7.7035 1.3436 3.5849
H 6.2728 0.9847 4.6273
H 6.2546 2.4147 3.5243
H 6.1728 -1.3444 -2.3360
H 4.6764 -1.9322 -1.4443
H 7.3181 -3.4732 -1.8382
H 5.7522 -3.7616 -2.6882
H 5.8799 -4.0554 -0.9110
