52
 
C 2.3270 0.0340 0.0000
N 1.5713 1.1412 0.0368
C 2.1385 2.5021 0.0380
C 3.7058 2.4525 0.0329
C 1.6515 3.2960 -1.1892
C 0.2927 0.6739 0.0217
C 0.3152 -0.7067 -0.0153
C -0.8612 -1.4697 -0.0112
C -2.0856 -0.7904 0.0035
C -2.1189 0.6179 0.0189
C -0.9245 1.3683 0.0355
N 1.5954 -1.1324 -0.0339
C 2.0513 -2.5619 -0.0166
C 2.7092 -2.9204 1.3081
C 1.9876 -2.6925 2.4896
C 2.5897 -2.8587 3.7378
C 3.9073 -3.3069 3.8289
C 4.6067 -3.6488 2.6677
C 4.0150 -3.4567 1.4056
Ni 4.4769 0.0580 0.0014
N 6.5767 0.0815 0.0028
C 7.1581 0.1328 -1.2254
C 8.5426 0.0862 -1.3637
C 9.3368 -0.0860 -0.2260
C 10.8236 -0.2561 -0.3614
C 8.7203 -0.1323 1.0365
C 7.3233 -0.0141 1.1354
H 1.7958 3.0275 0.9547
H 4.1041 1.9474 -0.8632
H 4.1034 1.9234 0.9173
H 4.1091 3.4855 0.0406
H 1.9748 2.8119 -2.1350
H 2.0558 4.3301 -1.1591
H 0.5489 3.3875 -1.2132
H -0.8598 -2.5507 -0.0190
H -3.0098 -1.3564 0.0024
H -3.0768 1.1211 0.0238
H -0.9745 2.4444 0.0608
H 2.7155 -2.7724 -0.8803
H 1.1850 -3.2495 -0.1161
H 0.9634 -2.3503 2.4403
H 2.0348 -2.6186 4.6344
H 4.3778 -3.3969 4.8013
H 5.6156 -4.0383 2.7545
H 4.5861 -3.7123 0.5211
H 6.5338 0.2349 -2.1034
H 8.9823 0.1488 -2.3522
H 11.1547 -0.1529 -1.4185
H 11.0976 -1.2784 -0.0230
H 11.3657 0.4896 0.2542
H 9.3171 -0.2762 1.9282
H 6.8382 -0.0801 2.0997
