47
 
C 1.0240 -0.6530 -0.0550
N 1.0367 0.6278 -0.0808
C 2.2309 1.4346 -0.2231
C 3.1614 1.1113 0.9270
C 2.9278 1.1635 -1.5642
C -0.2970 1.1658 0.0765
C -1.2031 -0.0626 -0.0910
N -0.2881 -1.1588 0.1026
C -0.6659 -2.5233 0.4567
C 0.5800 -3.3877 0.6633
C -1.4983 -2.5499 1.7595
Ni 2.7802 -1.8697 -0.2955
N 4.4956 -3.0582 -0.5304
C 4.4694 -4.0761 -1.4237
C 3.1870 -4.3723 -2.1130
C 5.6433 -4.7935 -1.7018
C 6.8315 -4.4331 -1.0598
C 6.8259 -3.4092 -0.1153
C 5.6300 -2.7356 0.1554
C 5.5819 -1.6868 1.2161
H 1.9580 2.5147 -0.1916
H 3.3793 0.0123 0.8558
H 2.6441 1.3581 1.8814
H 4.0848 1.7247 0.8627
H 3.2446 0.1011 -1.6384
H 3.8313 1.8045 -1.6577
H 2.2463 1.3991 -2.4087
H -0.5621 1.9448 -0.6699
H -0.3657 1.5766 1.1083
H -1.5605 -0.1369 -1.1422
H -2.0640 -0.0197 0.6062
H -1.2840 -2.9487 -0.3619
H 1.1919 -2.9892 1.5017
H 1.1934 -3.3518 -0.2469
H 0.2953 -4.4356 0.8963
H -0.9209 -2.1367 2.6161
H -1.7902 -3.5929 2.0115
H -2.4393 -1.9711 1.6606
H 2.4333 -3.6150 -1.7765
H 2.8578 -5.4035 -1.8563
H 3.3248 -4.2947 -3.2109
H 5.6473 -5.5985 -2.4248
H 7.7559 -4.9495 -1.2835
H 7.7419 -3.1399 0.3974
H 6.5618 -1.5582 1.7216
H 4.8458 -2.0073 1.9885
H 5.2966 -0.7230 0.7773
