38
 
C 1.0240 -0.6530 -0.0550
N 1.0443 0.6197 -0.1272
C 2.2525 1.4127 -0.2816
C 2.3724 2.3678 0.9166
C 3.5182 0.5189 -0.4441
C -0.2909 1.1600 0.0535
C -1.1945 -0.0711 -0.0644
N -0.2740 -1.1576 0.1536
C -0.6562 -2.5292 0.4485
C -1.5197 -3.0869 -0.6810
C 0.5665 -3.4353 0.6778
Ni 2.7802 -1.8697 -0.2955
O 4.4547 -3.0299 -0.5248
C 5.0471 -3.7325 0.4064
N 6.1276 -4.3701 -0.0911
C 6.1502 -4.0262 -1.3971
C 5.0993 -3.1741 -1.6506
H 2.1567 2.0341 -1.1988
H 2.4111 1.7981 1.8691
H 1.4886 3.0456 0.9543
H 3.2708 3.0101 0.8263
H 3.6654 -0.1645 0.4020
H 4.4143 1.1654 -0.5219
H 3.4451 -0.0878 -1.3636
H -0.5774 1.9355 -0.6881
H -0.3526 1.5697 1.0867
H -1.5524 -0.1662 -1.1151
H -2.0555 -0.0293 0.6356
H -1.2581 -2.5222 1.3881
H -0.9359 -3.0840 -1.6251
H -2.4311 -2.4667 -0.8159
H -1.8387 -4.1242 -0.4467
H 1.1544 -3.5390 -0.2483
H 0.2107 -4.4484 0.9722
H 1.1873 -3.0443 1.5109
H 4.7428 -3.7633 1.4437
H 6.8776 -4.3783 -2.1165
H 4.8177 -2.7303 -2.5966
