64
 
P 0.9546 -0.0396 -0.0798
C 0.1847 -1.8192 0.2833
C -1.3535 -1.9475 0.2921
C 0.6916 -2.9188 -0.6956
C 0.6643 -2.3682 1.6491
C 0.4641 1.1457 1.4124
C 1.0203 0.7534 2.7949
C 0.9909 2.5885 1.1988
C -1.0677 1.3167 1.6103
C 0.4272 0.4701 -1.8729
C -1.1140 0.5233 -2.0239
C 0.9136 1.8936 -2.2221
C 0.9695 -0.4217 -3.0052
Ni 3.4146 -0.0396 -0.0798
C 5.5646 -0.0396 -0.0798
N 6.2707 -0.4607 -1.0607
C 5.7305 -1.0616 -2.2605
C 4.8720 -2.2674 -1.9113
C 7.6847 -0.3207 -0.7806
C 7.7152 0.5737 0.4651
N 6.3749 0.4537 0.9654
C 5.9702 0.8473 2.2956
C 4.5023 0.5790 2.5257
H -1.8142 -1.8732 -0.6899
H -1.8513 -1.2763 0.9759
H -1.6540 -2.9594 0.6365
H 0.2612 -2.8636 -1.6941
H 0.3243 -3.9228 -0.3742
H 1.8001 -2.9856 -0.7354
H 0.1751 -1.8752 2.4772
H 1.7742 -2.3951 1.7368
H 0.3052 -3.4091 1.8183
H 2.0961 0.7475 2.7900
H 0.6809 -0.1678 3.2351
H 0.7015 1.4907 3.5644
H 2.0918 2.6177 1.0840
H 0.7244 3.2294 2.0730
H 0.4980 3.1229 0.3805
H -1.5654 0.4118 1.9527
H -1.5787 1.7565 0.7381
H -1.2868 2.0167 2.4451
H -1.5941 1.1366 -1.2484
H -1.5676 -0.4651 -2.0602
H -1.4192 0.9624 -2.9965
H 0.4953 2.6521 -1.5614
H 0.5259 2.2007 -3.2223
H 2.0178 1.9667 -2.2544
H 0.5597 -1.4255 -3.0067
H 2.0762 -0.4576 -3.0044
H 0.6269 -0.0292 -3.9906
H 6.5653 -1.3753 -2.9284
H 5.1027 -0.3252 -2.8020
H 5.4979 -3.0202 -1.3738
H 4.5173 -2.7487 -2.8478
H 3.9954 -1.8989 -1.3016
H 8.2661 0.1406 -1.6067
H 8.0798 -1.3339 -0.5442
H 7.8418 1.6399 0.1655
H 8.5096 0.2759 1.1803
H 6.1810 1.9250 2.4546
H 6.5529 0.2551 3.0361
H 3.9205 1.1727 1.7872
H 4.2387 0.8691 3.5669
H 4.2738 -0.5033 2.4016
