107
 
C 2.3270 0.0340 0.0000
N 1.5443 -0.2495 -1.1104
C 1.9836 -0.6690 -2.4574
C 2.3545 -2.1918 -2.4844
C 3.3185 -2.5816 -3.6488
C 4.0614 -3.9356 -3.4325
C 0.2503 -0.1576 -0.6894
C 0.2213 0.1637 0.6314
C -0.9781 0.3331 1.3437
C -2.1816 0.1660 0.6695
C -2.1751 -0.1981 -0.6867
C -0.9556 -0.3696 -1.3847
N 1.4694 0.2707 1.1053
C 1.6554 0.5970 2.5466
C 1.1103 2.0296 3.0050
C -0.1774 2.8519 3.4807
C -0.9922 3.7033 2.4554
Ni 4.4769 0.0580 0.0014
C 6.6267 0.0821 0.0028
N 7.4502 -0.9849 0.1216
C 7.2500 -2.4977 0.3629
C 5.9853 -3.2596 0.4476
C 4.6522 -2.6630 0.2106
C 4.0601 -1.9152 1.4310
C 4.8550 -1.9135 -1.1161
C 5.9216 -4.6731 0.6847
C 7.0530 -5.4446 0.7713
C 8.2754 -4.8090 0.7237
C 8.3923 -3.3700 0.6088
C 9.6278 -2.8371 1.3337
C 8.8968 -2.6327 2.7230
C 10.9419 -3.4162 0.7367
C 8.8038 -0.4377 -0.0506
C 8.7037 1.0146 -0.4199
N 7.3420 1.3462 -0.1175
C 6.9148 2.5936 0.5160
C 5.6484 3.1722 0.1489
C 4.6681 2.5869 -0.8580
C 3.3696 2.4416 -0.0888
C 4.3447 3.4587 -2.0698
C 5.2084 4.3526 0.7772
C 5.9051 4.9434 1.7811
C 7.1263 4.4562 2.1414
C 7.7145 3.3310 1.5219
C 9.1702 3.0204 1.9826
C 9.8014 3.9753 2.9962
C 9.3308 1.6258 2.5938
H 2.7988 0.0280 -2.7711
H 1.1739 -0.5700 -3.2027
H 1.4928 -2.8563 -2.3651
H 2.7424 -2.5191 -1.5443
H 4.0910 -1.7939 -3.8578
H 2.6790 -2.6631 -4.5435
H 4.8989 -4.0241 -2.7280
H 4.5658 -4.2463 -4.3648
H 3.3679 -4.6844 -3.0285
H -1.0067 0.5877 2.3924
H -3.1116 0.3100 1.2085
H -3.1228 -0.3463 -1.1833
H -0.9827 -0.6565 -2.4229
H 2.7482 0.6021 2.7426
H 1.2377 -0.2125 3.2001
H 1.3799 2.6140 2.1262
H 1.7660 2.1914 3.8884
H 0.3105 3.6967 4.0287
H -0.8051 2.4054 4.2901
H -0.3474 4.1140 1.6511
H -1.3762 4.6209 2.9713
H -1.8838 3.2182 2.0057
H 3.8923 -3.4696 0.0229
H 4.5615 -0.9389 1.7280
H 3.8346 -2.5588 2.3116
H 3.0245 -1.7629 1.1629
H 5.6359 -1.3569 -1.1627
H 4.2146 -1.1232 -1.4965
H 5.4014 -2.4235 -1.8632
H 4.9704 -5.2054 0.8026
H 6.9794 -6.5285 0.9496
H 9.1141 -5.4750 0.9121
H 10.1323 -1.9005 1.4454
H 8.0100 -3.2934 2.9165
H 8.3454 -1.6427 2.6532
H 9.4843 -2.6086 3.6411
H 10.9358 -4.4804 0.6070
H 11.8790 -3.1052 1.2651
H 11.9297 -3.0474 1.1230
H 9.5380 -0.9347 -0.7194
H 9.2289 -0.3867 0.9102
H 8.8932 1.2387 -1.4823
H 9.5212 1.5487 0.0452
H 5.0255 1.6193 -1.2845
H 2.9059 3.3288 0.3524
H 3.5922 1.8227 0.8138
H 2.5874 2.1487 -0.8135
H 3.8157 4.3744 -1.7387
H 3.6391 2.9207 -2.7530
H 5.2630 3.6909 -2.6339
H 4.2746 4.8275 0.5261
H 5.4947 5.8097 2.2787
H 7.5979 5.0218 2.9214
H 9.8043 3.1921 1.0879
H 9.2225 3.9227 3.9438
H 9.8141 5.0083 2.5893
H 10.8487 3.6746 3.2097
H 8.9616 1.5164 3.6234
H 10.3994 1.2861 2.5350
H 8.6291 0.9794 2.1146
