49
 
P 1.0334 0.0694 0.0637
C 0.2639 -1.6679 -0.4668
C -1.2738 -1.7821 -0.5202
C 0.7693 -2.1694 -1.8520
C 0.7401 -2.8023 0.4728
C 0.5612 0.3981 1.9397
C 1.1699 -0.5968 2.9501
C 1.0717 1.7718 2.4424
C -0.9742 0.4432 2.2021
C 0.5014 1.3741 -1.2666
C -1.0397 1.4916 -1.3695
C 0.9868 2.7925 -0.8952
C 1.0390 1.1324 -2.6892
Ni 3.4934 0.0694 0.0637
O 5.5434 0.0694 0.0637
C 6.3191 1.1231 0.0383
N 7.6189 0.7600 0.0512
C 7.5915 -0.5899 0.0866
C 6.2799 -1.0082 0.0939
H -1.7333 -1.2498 -1.3488
H -1.7709 -1.5151 0.3991
H -1.5771 -2.8351 -0.6965
H 0.3424 -1.6427 -2.7037
H 0.3960 -3.2030 -2.0482
H 1.8781 -2.2145 -1.9200
H 0.2545 -2.7551 1.4379
H 1.8501 -2.8771 0.5314
H 0.3718 -3.7961 0.1301
H 2.2755 -0.5744 2.9140
H 0.8251 -1.6164 2.8981
H 0.8366 -0.3310 3.9799
H 2.1729 1.8572 2.3618
H 0.7982 1.9112 3.5162
H 0.5732 2.6299 1.9810
H -1.4745 -0.5117 2.0650
H -1.4910 1.2485 1.6495
H -1.1965 0.6532 3.2694
H -1.5174 1.6587 -0.3937
H -1.4930 0.6415 -1.8744
H -1.3471 2.3411 -2.0141
H 0.5749 3.1406 0.0508
H 0.5912 3.5400 -1.6231
H 2.0906 2.8768 -0.8970
H 0.6302 0.2494 -3.1670
H 2.1458 1.1041 -2.7103
H 0.6912 1.9458 -3.3672
H 5.9704 2.1462 0.0118
H 8.4670 -1.2253 0.1065
H 5.9074 -2.0238 0.1205
