75
 
P 1.0458 -0.0486 0.0745
C 0.2846 -0.7632 1.7464
C -1.2509 -0.8248 1.8516
C 0.7859 -2.1945 2.1002
C 0.7611 0.0499 2.9739
C 0.5674 1.8499 -0.0564
C 1.1715 2.7492 1.0410
C 1.0740 2.5014 -1.3685
C -0.9685 2.1107 -0.0736
C 0.5110 -1.2314 -1.3641
C -1.0298 -1.3183 -1.4884
C 0.9935 -0.7126 -2.7359
C 1.0438 -2.6726 -1.2775
Ni 3.5058 -0.0486 0.0745
P 5.9658 -0.0486 0.0745
C 6.7929 1.0581 -1.1061
C 6.3890 2.4134 -1.1146
C 6.8792 3.3039 -2.0770
C 7.7876 2.8584 -3.0357
C 8.1989 1.5221 -3.0358
C 7.6960 0.6211 -2.0855
C 6.4733 0.6697 1.6485
C 5.5231 1.0493 2.6021
C 5.9443 1.6323 3.8099
C 7.3078 1.8269 4.0688
C 8.2600 1.4027 3.1408
C 7.8468 0.8191 1.9379
C 6.4065 -1.7877 -0.2959
C 5.4104 -2.7590 -0.4922
C 5.7735 -4.1017 -0.6842
C 7.1175 -4.4741 -0.6862
C 8.0911 -3.4945 -0.4931
O 9.2702 -3.8067 -0.4856
N 7.7198 -2.1818 -0.2966
H -1.7120 -1.5883 1.2332
H -1.7407 0.1175 1.6828
H -1.5592 -1.1062 2.8787
H 0.3621 -2.9845 1.4838
H 0.4023 -2.4975 3.1036
H 1.8941 -2.2714 2.1485
H 0.2811 1.0145 3.0225
H 1.8712 0.0925 3.0659
H 0.3764 -0.3844 3.9238
H 2.2771 2.7254 1.0160
H 0.8314 2.5847 2.0473
H 0.8247 3.7974 0.8943
H 2.1753 2.4419 -1.4632
H 0.7910 3.5812 -1.3904
H 0.5804 2.1338 -2.2731
H -1.4682 1.8695 0.8581
H -1.4857 1.6554 -0.9374
H -1.1945 3.1936 -0.1551
H -1.5060 -0.3301 -1.5501
H -1.4818 -1.9119 -0.6985
H -1.3403 -1.8698 -2.3994
H 0.5879 0.2683 -2.9762
H 0.5859 -1.3507 -3.5555
H 2.0971 -0.7153 -2.8266
H 0.6403 -3.2376 -0.4462
H 2.1489 -2.7009 -1.2633
H 0.6870 -3.2615 -2.1535
H 5.6626 2.7837 -0.3994
H 6.5446 4.3360 -2.0911
H 8.1621 3.5461 -3.7852
H 8.8951 1.1799 -3.7888
H 7.9989 -0.4093 -2.1423
H 4.4644 0.8901 2.3989
H 5.2168 1.9428 4.5467
H 7.6279 2.2999 4.9907
H 9.3166 1.5344 3.3517
H 8.6031 0.4978 1.2319
H 4.3640 -2.4901 -0.4726
H 5.0152 -4.8633 -0.8205
H 7.3984 -5.5146 -0.8273
H 8.4736 -1.4792 -0.1293
