44
 
C 1.0240 -0.6530 -0.0550
N 1.0527 0.6186 -0.1079
C 2.2668 1.4063 -0.2609
C 2.3847 2.3776 0.9192
C 3.5387 0.5152 -0.3665
C -0.2836 1.1618 0.0511
C -1.1939 -0.0693 -0.0645
N -0.2748 -1.1608 0.1227
C -0.6573 -2.5318 0.4263
C -1.5254 -3.0940 -0.6952
C 0.5590 -3.4429 0.6610
Ni 2.7802 -1.8697 -0.2955
N 4.4956 -3.0582 -0.5304
C 5.6470 -2.6809 0.0800
N 6.7925 -3.3718 -0.1436
C 6.8169 -4.4396 -0.9885
O 7.9749 -5.0939 -1.2419
C 9.1936 -4.7059 -0.7238
C 5.6359 -4.8462 -1.6172
C 4.4645 -4.1302 -1.3626
H 2.1793 2.0072 -1.1943
H 2.4263 1.8142 1.8754
H 1.5026 3.0550 0.9489
H 3.2876 3.0127 0.8186
H 3.6811 -0.0998 0.5393
H 4.4297 1.1586 -0.5035
H 3.4869 -0.1626 -1.2326
H -0.5575 1.9276 -0.7053
H -0.3519 1.5865 1.0773
H -1.5815 -0.1598 -1.1041
H -2.0317 -0.0351 0.6638
H -1.2514 -2.5192 1.3703
H -0.9466 -3.0954 -1.6427
H -2.4357 -2.4724 -0.8260
H -1.8431 -4.1299 -0.4537
H 1.1335 -3.5749 -0.2694
H 0.2042 -4.4482 0.9780
H 1.1927 -3.0406 1.4809
H 5.6539 -1.8227 0.7371
H 9.9838 -5.3975 -1.0800
H 9.1634 -4.7336 0.3862
H 9.4438 -3.6765 -1.0627
H 5.6291 -5.6809 -2.3071
H 3.5419 -4.3955 -1.8620
