44
 
N -1.4046 -0.0077 -0.0367
C -0.7108 1.0703 -0.5471
C 0.6858 1.0782 -0.6432
Cl 1.5678 2.2710 -1.5958
C 1.3661 0.1169 0.0165
C 0.6786 -0.8107 0.7814
C -0.7041 -0.9495 0.6436
Ni -3.4720 -0.1806 -0.2782
P -5.8363 -0.3323 -0.5865
N -6.4392 -1.8603 -1.2392
C -5.8179 -2.0516 -2.5546
C -6.1641 -2.9914 -0.3906
O -6.3608 0.8722 -1.5135
C -6.4360 2.1297 -0.9429
C -5.5717 3.1475 -1.3677
C -5.6428 4.4191 -0.8254
C -6.5733 4.7084 0.1509
C -7.4529 3.7403 0.5854
C -7.4016 2.4517 0.0479
C -8.3541 1.4246 0.4843
C -9.7194 1.7051 0.5490
C -10.6132 0.7343 0.9496
C -10.1644 -0.5162 1.3082
C -8.8220 -0.7964 1.2843
C -7.8969 0.1435 0.8481
O -6.5858 -0.2112 0.8357
H -1.2257 1.9332 -0.8889
H 2.4150 0.1075 -0.0526
H 1.2142 -1.4259 1.4462
H -1.2060 -1.7916 1.0433
H -6.0306 -1.2079 -3.2103
H -6.2025 -2.9559 -3.0228
H -4.7410 -2.1457 -2.4463
H -6.6213 -2.8486 0.5779
H -5.1335 -3.1153 -0.2747
H -6.5447 -3.9021 -0.8387
H -4.8519 2.9434 -2.1108
H -4.9822 5.1715 -1.1588
H -6.6160 5.6775 0.5633
H -8.1569 3.9765 1.3383
H -10.0777 2.6596 0.2753
H -11.6432 0.9523 0.9899
H -10.8480 -1.2563 1.6154
H -8.4832 -1.7730 1.5321
