58
 
N -1.3981 -0.0768 -0.0423
C -0.8012 1.0394 0.4815
C 0.5827 1.2446 0.3469
Cl 1.3527 2.8042 0.6387
C 1.3646 0.1809 -0.0162
C 0.7748 -1.0479 -0.2555
C -0.6121 -1.1203 -0.4272
Ni -3.4502 -0.1693 -0.2740
P -5.8634 -0.3000 -0.5527
C -6.6074 1.3750 -0.6716
C -6.0091 2.0958 -1.8764
C -8.0946 1.3896 -0.7597
C -6.1853 2.2203 0.4898
C -6.2952 -1.2824 -2.0501
C -5.7556 -2.6718 -1.9297
C -7.7968 -1.4332 -2.2161
C -5.6846 -0.6898 -3.2757
C -6.5717 -1.1018 0.9354
C -5.7135 -1.5039 1.9515
C -6.1347 -2.3024 2.9845
C -7.4716 -2.5222 3.2085
N -7.9224 -3.3298 4.3011
C -7.1757 -3.4334 5.5475
C -9.1241 -4.1288 4.1833
C -8.3485 -1.9154 2.3150
C -7.8999 -1.3841 1.1343
H -1.3746 1.8356 0.8734
H 2.4241 0.3153 -0.0834
H 1.3942 -1.9099 -0.3572
H -1.0588 -2.0384 -0.7648
H -6.3493 1.7489 -2.7686
H -4.9125 2.0889 -1.8819
H -6.4091 3.0858 -2.0376
H -8.4451 1.0315 -1.6354
H -8.5074 2.3709 -0.9000
H -8.5622 0.8601 0.0409
H -5.1026 2.2570 0.5876
H -6.5196 1.8659 1.4118
H -6.6031 3.2304 0.4093
H -6.2328 -3.1947 -1.1172
H -4.6706 -2.6353 -1.7969
H -6.0051 -3.2625 -2.8190
H -8.2860 -1.8353 -1.3259
H -8.0777 -1.9595 -3.1151
H -8.2566 -0.5748 -2.5009
H -4.6131 -0.5436 -3.1563
H -6.1307 0.1743 -3.5611
H -5.9490 -1.2111 -4.1784
H -4.6995 -1.2226 1.9552
H -5.3948 -2.6848 3.6053
H -6.2797 -2.8452 5.5950
H -6.8293 -4.4571 5.7297
H -7.7762 -3.0816 6.3884
H -9.6156 -4.0344 3.2327
H -9.8601 -3.8251 4.9309
H -8.9081 -5.1984 4.2773
H -9.3810 -1.8570 2.4735
H -8.6284 -1.1912 0.4441
