25
 
P 0.9451 0.0224 0.0805
O -0.2316 1.0922 -0.5093
C 0.2852 2.3950 -0.2001
O 0.4616 -1.3628 -0.7876
C 1.0685 -2.4865 -0.1896
O 0.6123 0.4897 1.6947
C 1.2402 -0.3712 2.5922
Ni 3.4051 0.0224 0.0805
O 5.4551 0.0224 0.0805
C 6.2296 -0.4689 -0.8530
N 7.5298 -0.2982 -0.5345
C 7.5042 0.3316 0.6600
C 6.1930 0.5263 1.0325
H -0.0288 3.1533 -0.9420
H 1.4093 2.4859 -0.1845
H -0.0824 2.7116 0.8001
H 0.6070 -3.4057 -0.6052
H 0.8823 -2.5707 0.8980
H 2.1561 -2.5090 -0.4111
H 1.1016 0.0598 3.6055
H 2.3320 -0.4315 2.3962
H 0.7290 -1.3504 2.6274
H 5.8794 -0.9447 -1.7587
H 8.3808 0.6283 1.2205
H 5.8222 0.9995 1.9321
