80
 
N -1.3900 -0.1120 -0.0540
C -0.5632 -0.1644 -1.1631
C 0.8263 -0.2222 -1.0736
C 1.4339 -0.2846 0.1703
C 2.9257 -0.4745 0.2838
C 0.6251 -0.1714 1.3056
C -0.7765 -0.0174 1.1770
Ni -3.4756 -0.2017 -0.2821
C -5.6110 -0.2936 -0.5156
N -6.3219 -1.4964 -0.4818
C -5.9137 -2.9829 -0.4379
C -4.5318 -3.4750 -0.5353
C -3.3249 -2.6553 -0.5749
C -3.3179 -1.8810 -1.9137
C -3.2935 -2.1770 0.9093
C -4.1703 -4.8325 -0.4452
C -5.0895 -5.7863 -0.2007
C -6.4010 -5.4279 -0.0844
C -6.8713 -4.0880 -0.2296
C -8.3990 -3.9487 -0.2044
C -9.1501 -5.1728 -0.7518
C -9.0014 -3.5700 1.1757
C -7.5797 -1.0258 -0.2593
C -7.6243 0.3330 -0.1717
N -6.3985 0.8491 -0.2983
C -6.1693 2.3588 -0.2744
C -6.8404 3.2032 0.7363
C -7.7995 2.7372 1.8526
C -7.3547 3.1394 3.2726
C -9.2063 3.3286 1.5953
C -6.6557 4.6092 0.7368
C -5.9000 5.2578 -0.1937
C -5.3147 4.5502 -1.1969
C -5.4101 3.1411 -1.3096
C -4.6779 2.5991 -2.5702
C -4.1573 3.5947 -3.6694
C -3.4408 1.9374 -2.0796
H -0.9306 -0.0962 -2.1732
H 1.4181 -0.2465 -1.9833
H 3.4153 -0.5475 -0.7142
H 3.1403 -1.4209 0.8265
H 3.3840 0.3705 0.8352
H 1.0849 -0.2319 2.2843
H -1.3613 0.0201 2.0852
H -2.3623 -3.2235 -0.6458
H -4.1314 -1.1929 -2.0973
H -3.2197 -2.5525 -2.7878
H -2.5029 -1.2368 -1.9852
H -4.1425 -1.5301 1.2109
H -2.3682 -1.7416 1.1987
H -3.3040 -3.0415 1.6081
H -3.1371 -5.1747 -0.5064
H -4.7734 -6.8174 -0.0920
H -7.0370 -6.2645 0.1185
H -8.6287 -3.2400 -1.0156
H -9.0756 -6.0501 -0.0797
H -8.7445 -5.4289 -1.7560
H -10.2296 -4.9492 -0.8416
H -9.0080 -4.4307 1.8754
H -10.0561 -3.2467 1.0191
H -8.4746 -2.7404 1.6925
H -8.4882 -1.5163 -0.0865
H -8.5373 0.8836 -0.0017
H -7.8852 1.6451 1.8914
H -7.2744 4.2385 3.4079
H -6.3853 2.6688 3.5272
H -8.1151 2.7881 4.0057
H -9.2042 4.4414 1.6197
H -9.9267 2.9931 2.3702
H -9.5831 3.0100 0.6020
H -7.1155 5.2551 1.4721
H -5.7810 6.3373 -0.1567
H -4.7724 5.1714 -1.8884
H -5.3595 1.8980 -3.0979
H -3.4249 4.3424 -3.2838
H -4.9755 4.1239 -4.1992
H -3.5824 3.0404 -4.4464
H -2.8041 2.6596 -1.5193
H -2.8758 1.4330 -2.8852
H -3.8368 1.2305 -1.4268
