63
 
P 0.9474 -0.0815 -0.0243
O -0.2053 1.1622 0.0030
C 0.3315 2.1204 0.9279
O 0.4601 -0.8411 -1.4711
C 1.0515 -2.1221 -1.5120
O 0.6100 -0.4859 1.6060
C 1.2045 -1.7013 1.9400
Ni 3.4074 -0.0815 -0.0243
P 5.8674 -0.0815 -0.0243
C 6.5497 1.4979 -0.5975
C 5.5912 2.4957 -0.8781
C 5.9677 3.7137 -1.4539
C 7.3152 3.9600 -1.7695
O 7.7115 5.0931 -2.4159
C 6.8653 6.0723 -2.9103
C 8.2769 2.9898 -1.4297
C 7.9013 1.7669 -0.8375
C 6.3152 -0.2446 1.7253
C 7.1194 -1.3292 2.1320
C 7.3988 -1.5454 3.4857
C 6.8752 -0.6834 4.4660
O 7.0705 -0.8960 5.7968
C 7.7172 -1.9907 6.3425
C 6.1090 0.4197 4.0550
C 5.8340 0.6406 2.6949
C 6.2339 -1.3456 -1.2856
C 6.9746 -1.0957 -2.4543
C 7.2225 -2.1251 -3.3699
C 6.7468 -3.4307 -3.1407
O 6.9449 -4.4378 -4.0349
C 7.4897 -4.2658 -5.2945
C 6.0390 -3.6906 -1.9606
C 5.7830 -2.6579 -1.0464
H 0.0287 3.1553 0.6796
H 1.4572 2.1759 0.9797
H -0.0325 1.8898 1.9527
H 0.5923 -2.7034 -2.3376
H 0.8447 -2.7417 -0.6195
H 2.1434 -2.0468 -1.6987
H 1.0567 -1.8476 3.0298
H 2.2979 -1.6808 1.7438
H 0.6719 -2.5485 1.4715
H 4.5320 2.3174 -0.6742
H 5.2015 4.4466 -1.6800
H 7.4539 6.8516 -3.4389
H 6.3101 6.5521 -2.0783
H 6.1453 5.6356 -3.6391
H 9.3192 3.1706 -1.6578
H 8.6516 1.0234 -0.6167
H 7.5230 -2.0305 1.4116
H 8.0054 -2.3990 3.7644
H 7.7032 -1.9249 7.4502
H 8.7735 -2.0180 6.0028
H 7.2022 -2.9312 6.0444
H 5.7013 1.0968 4.7943
H 5.2193 1.4793 2.4028
H 7.3689 -0.1190 -2.6831
H 7.7879 -1.8944 -4.2614
H 7.5279 -5.2334 -5.8346
H 8.5229 -3.8673 -5.2148
H 6.8599 -3.5594 -5.8799
H 5.6756 -4.6919 -1.7525
H 5.2313 -2.8869 -0.1430
