46
 
N -1.3978 -0.3780 -0.0607
C -0.6009 0.6824 -0.3688
C 0.7960 0.5512 -0.3907
C 1.3735 -0.6487 -0.0012
Cl 3.1163 -0.8568 -0.1059
C 0.5541 -1.6836 0.4518
C -0.8414 -1.5479 0.3779
Ni -3.4237 -0.2783 -0.2518
P -5.8210 -0.2271 -0.4554
O -6.7852 1.1617 -0.7218
C -6.2220 1.7683 -1.8934
C -6.8641 3.1098 -2.3567
C -4.7164 2.0467 -1.7771
O -6.0850 -1.1469 -1.9198
C -5.5911 -2.4700 -1.8141
C -5.9125 -3.1531 -3.1341
C -4.0758 -2.4757 -1.6309
O -6.5614 -1.0605 0.8406
C -6.2296 -0.4374 2.0770
C -6.6859 1.0253 2.1610
C -6.9290 -1.1753 3.2222
H -1.0259 1.6434 -0.6081
H 1.4375 1.3690 -0.7054
H 0.9980 -2.5956 0.8126
H -1.4786 -2.3828 0.6316
H -6.3703 1.0377 -2.7093
H -6.7388 3.9195 -1.6032
H -7.9233 3.0070 -2.5980
H -6.4393 3.4418 -3.3388
H -4.5274 2.8358 -1.0289
H -4.3203 2.3709 -2.7593
H -4.1687 1.1337 -1.4866
H -6.0541 -3.0148 -0.9570
H -5.4748 -2.5413 -3.9611
H -7.0022 -3.2111 -3.2420
H -5.5444 -4.1899 -3.1460
H -3.5731 -1.9077 -2.4391
H -3.6920 -3.5107 -1.6217
H -3.8069 -2.0529 -0.6852
H -5.1365 -0.4998 2.2742
H -7.7745 1.0969 1.9399
H -6.1025 1.6582 1.4884
H -6.4468 1.4742 3.1394
H -8.0318 -1.1285 3.0946
H -6.6754 -0.6987 4.1989
H -6.6088 -2.2339 3.2613
