34
 
N -0.6590 -1.2280 -0.0510
C -1.2913 -0.2749 0.6593
C -2.5433 -0.6842 1.3527
C -0.7104 0.9993 0.7847
C 0.4698 1.2780 0.0815
C 1.0755 0.2786 -0.6841
C 0.5133 -0.9991 -0.6979
Ni -1.5756 -3.1044 -0.2726
N -2.4923 -4.9807 -0.4941
C -1.7267 -6.0730 -0.2838
C -2.2348 -7.3466 -0.5021
C -3.5352 -7.5221 -1.0375
N -4.0288 -8.8404 -1.4101
C -3.2825 -10.0746 -1.1727
C -5.2806 -9.0492 -2.1304
C -4.3030 -6.3376 -1.2306
C -3.7732 -5.0814 -0.9146
H -2.7939 -1.7567 1.0249
H -3.3582 0.0078 1.0681
H -2.3815 -0.5989 2.4567
H -1.1658 1.7679 1.3956
H 0.9121 2.2658 0.1208
H 1.9618 0.4928 -1.2694
H 0.9446 -1.7786 -1.3133
H -0.7172 -5.9479 0.0863
H -1.5551 -8.1453 -0.2765
H -2.3312 -9.9666 -0.6380
H -3.0455 -10.5576 -2.1450
H -3.8967 -10.7723 -0.5664
H -5.8525 -8.1417 -2.3596
H -5.9438 -9.7198 -1.5455
H -5.0623 -9.5284 -3.1096
H -5.2950 -6.3254 -1.6425
H -4.3442 -4.1825 -1.1101
