35
 
N -0.6474 -1.2133 -0.0404
C 0.6742 -1.1603 0.1568
C 1.4282 -2.4426 0.1788
C 1.2811 0.0871 0.3917
C 0.4812 1.2360 0.4403
C -0.8936 1.1338 0.2227
C -1.4480 -0.1198 -0.0388
Ni -1.5797 -3.1006 -0.2702
P -2.6447 -5.3024 -0.5340
N -3.7159 -5.7510 0.8225
C -4.8666 -4.9075 1.1536
C -4.1111 -7.1557 0.6226
O -3.9537 -5.3211 -1.6405
C -3.5951 -4.9542 -2.9277
O -1.4034 -6.4684 -0.3491
C -0.4137 -6.2628 -1.3467
H 0.6775 -3.2985 0.0410
H 1.9482 -2.5241 1.1605
H 2.2044 -2.4204 -0.6178
H 2.3458 0.1715 0.5676
H 0.9193 2.2029 0.6576
H -1.5245 2.0130 0.2707
H -2.5139 -0.2202 -0.1982
H -4.5727 -3.8435 1.2276
H -5.2596 -5.2293 2.1413
H -5.7188 -5.0672 0.4813
H -3.2102 -7.8033 0.5127
H -4.7273 -7.2735 -0.2967
H -4.6924 -7.5427 1.4833
H -4.4078 -5.3356 -3.5896
H -2.6510 -5.4266 -3.2691
H -3.6170 -3.8515 -2.9792
H 0.5670 -6.6290 -0.9897
H -0.2736 -5.1995 -1.6569
H -0.5904 -6.9072 -2.2195
