20
 
N -0.6590 -1.2280 -0.0510
C -1.4210 -0.1149 0.0919
Cl -3.1630 -0.2821 0.1408
C -0.8103 1.1446 0.1487
C 0.5838 1.2313 0.0686
C 1.3458 0.0687 -0.0620
C 0.6968 -1.1651 -0.1231
Ni -1.5756 -3.1044 -0.2726
N -2.4923 -4.9807 -0.4941
C -1.8945 -6.1793 -0.5788
O -2.7815 -7.1347 -0.7577
C -3.9688 -6.5663 -0.8052
C -3.8054 -5.2102 -0.6213
H -1.4040 2.0449 0.2378
H 1.0738 2.1961 0.0996
H 2.4250 0.1219 -0.1303
H 1.2673 -2.0766 -0.2458
H -0.8288 -6.3378 -0.4833
H -4.9004 -7.0872 -0.9821
H -4.5711 -4.4459 -0.6383
