30
 
N -1.3942 -0.1261 -0.0677
C -0.7820 0.9868 0.5836
C 0.6037 1.1911 0.4770
C 1.2309 2.5072 0.8681
C 1.3593 0.2113 0.0256
C 0.7836 -1.0092 -0.3241
C -0.6107 -1.1052 -0.5011
Ni -3.4812 -0.1887 -0.2743
N -5.5595 -0.3022 -0.5107
C -6.3890 0.7573 -0.0779
C -7.7776 0.5701 0.0560
O -8.5705 1.4981 0.7457
C -7.9841 2.6438 1.3254
C -8.3242 -0.5032 -0.4827
C -7.5357 -1.4185 -1.1797
C -6.1332 -1.3794 -1.0517
H -1.3532 1.6685 1.1302
H 0.4664 3.1806 1.2079
H 1.7290 2.9396 0.0181
H 1.9440 2.3530 1.6547
H 2.3814 0.3573 -0.0608
H 1.3862 -1.8438 -0.4638
H -1.0330 -1.9305 -0.9663
H -5.9810 1.6892 0.1523
H -8.7331 3.2389 1.8118
H -7.5086 3.2318 0.5598
H -7.2447 2.3465 2.0486
H -9.3445 -0.6526 -0.3845
H -7.9856 -2.1324 -1.7853
H -5.5475 -2.1729 -1.3769
