31
 
O 0.9830 -0.0713 0.0680
C 0.5923 1.2545 -0.1025
C 1.1197 2.0886 1.0518
C 1.1158 1.7720 -1.4318
Ni 3.0330 -0.0713 0.0680
N 5.1330 -0.0713 0.0680
C 5.9678 0.9769 0.0801
N 7.2586 0.5654 0.0848
C 8.4473 1.3884 0.0595
C 8.3554 2.7957 0.0286
C 9.5079 3.5818 -0.0500
C 10.7661 2.9802 -0.0945
C 10.8758 1.5911 -0.0474
C 9.7293 0.7997 0.0309
C 7.2058 -0.7889 0.0868
C 5.8891 -1.1763 0.0753
H -0.5197 1.2954 -0.1066
H 2.2349 2.0369 1.0460
H 0.7189 1.6936 2.0110
H 0.7803 3.1424 0.9439
H 2.2296 1.7296 -1.4215
H 0.7753 2.8184 -1.5920
H 0.7174 1.1467 -2.2600
H 5.6268 2.0019 0.0794
H 7.4010 3.3001 0.0523
H 9.4232 4.6599 -0.0852
H 11.6564 3.5897 -0.1669
H 11.8504 1.1219 -0.0804
H 9.8614 -0.2710 0.0559
H 8.0464 -1.4665 0.0889
H 5.5046 -2.1875 0.0710
