37
 
O -0.3294 -1.0978 -0.0093
C 0.9092 -0.6585 -0.0932
C 0.8942 0.7254 -0.0696
C -0.4313 1.0986 0.0365
C -1.1577 -0.0742 0.0840
Ni -0.9241 -3.0419 0.0144
P -1.6164 -5.4009 0.0385
C -0.4169 -6.5663 0.7347
C -3.2111 -5.5418 0.8591
C -3.8314 -4.3890 1.3701
C -5.0189 -4.4842 2.0987
C -5.6121 -5.7301 2.2970
C -5.0327 -6.8776 1.7394
C -3.8287 -6.7889 1.0227
C -1.6159 -6.0132 -1.6600
C -1.2600 -5.1552 -2.7161
C -1.2806 -5.6079 -4.0373
C -1.6159 -6.9334 -4.3102
C -1.8896 -7.8152 -3.2587
C -1.9016 -7.3565 -1.9359
H 1.7825 -1.2901 -0.1647
H 1.7469 1.3895 -0.1247
H -0.8217 2.1073 0.0728
H -2.2341 -0.1582 0.1632
H -0.2782 -6.2123 1.7885
H 0.5723 -6.4269 0.2508
H -0.7415 -7.6156 0.7695
H -3.4018 -3.4083 1.2165
H -5.4741 -3.5933 2.5172
H -6.5221 -5.8011 2.8798
H -5.5117 -7.8358 1.8816
H -3.3627 -7.6803 0.6165
H -0.9604 -4.1322 -2.5325
H -1.0371 -4.9323 -4.8495
H -1.6472 -7.2784 -5.3354
H -2.0992 -8.8534 -3.4717
H -2.1101 -8.0430 -1.1276
