55
 
P 1.0058 -0.0129 0.0990
O -0.0391 -0.3280 -1.2237
C 0.4842 0.5009 -2.2754
C -0.2071 0.2921 -3.6105
O 0.4853 -1.1630 1.2462
C 0.6591 -2.4715 0.7947
C 0.1020 -3.3867 1.8827
O 0.5310 1.6313 0.2759
C -0.8913 1.6482 0.4282
C -1.4274 3.0644 0.4736
Ni 3.4658 -0.0129 0.0990
C 5.6158 -0.0129 0.0990
N 6.3158 -1.0722 -0.0368
C 5.7585 -2.4086 -0.1021
C 4.9236 -2.6729 1.1543
C 4.9010 -2.5818 -1.3574
C 7.7298 -0.7610 -0.0136
C 7.7593 0.7710 -0.1447
N 6.4158 1.1374 0.2157
C 5.9653 2.4707 0.5594
C 4.8731 2.9233 -0.4084
C 5.4536 2.4999 2.0060
H 1.5801 0.3474 -2.4466
H 0.3097 1.5762 -2.0513
H 0.0479 -0.6971 -4.0381
H 0.1467 1.0797 -4.3185
H -1.3030 0.4027 -3.4925
H 1.7389 -2.6935 0.6573
H 0.0789 -2.6581 -0.1350
H 0.6435 -3.2169 2.8395
H 0.2077 -4.4506 1.5915
H -0.9759 -3.1663 2.0538
H -1.2060 1.1076 1.3471
H -1.4308 1.2205 -0.4450
H -1.0395 3.5896 1.3656
H -2.5399 3.0251 0.5246
H -1.1439 3.6091 -0.4527
H 6.5906 -3.1480 -0.1487
H 4.0767 -1.9408 1.2123
H 5.5777 -2.5747 2.0498
H 4.5221 -3.7071 1.1345
H 4.0375 -1.8837 -1.3417
H 4.5165 -3.6227 -1.4091
H 5.5117 -2.3866 -2.2641
H 8.3121 -1.2389 -0.8299
H 8.1209 -1.0767 0.9792
H 7.8856 1.0577 -1.2143
H 8.5555 1.2306 0.4767
H 6.8306 3.1734 0.5066
H 4.0039 2.1920 -0.4046
H 5.3081 2.9865 -1.4281
H 4.5560 3.9538 -0.1241
H 4.5692 1.8403 2.1245
H 5.1684 3.5365 2.2911
H 6.2493 2.1642 2.7070
