95
 
P 1.0239 0.0839 0.0489
C 0.0979 1.4292 -0.7592
C 0.3929 -1.3481 -0.9828
C -0.3502 -1.2222 -2.1761
C -0.7465 -2.3619 -2.9006
C -0.3918 -3.6431 -2.4722
C 0.3127 -3.7949 -1.2913
C 0.6559 -2.6704 -0.5490
C 0.3429 0.3602 1.7498
C -1.0552 0.2388 1.9582
C -1.6271 0.4679 3.2231
C -0.8175 0.7856 4.3119
C 0.5624 0.8292 4.1476
C 1.1328 0.6225 2.8857
Ni 3.4839 0.0839 0.0489
C 5.6339 0.0839 0.0489
N 6.3949 -1.0322 -0.1662
C 6.0314 -2.5371 -0.0915
C 6.7940 -3.6938 -0.5998
C 8.0637 -3.5925 -1.4350
C 8.6101 -4.9553 -1.9610
C 7.7375 -2.7705 -2.6802
C 6.2807 -5.0364 -0.4275
C 5.1044 -5.3316 0.2028
C 4.3577 -4.3178 0.6595
C 4.7913 -2.9955 0.4922
C 3.7608 -2.0796 0.6886
C 4.1838 -1.2209 1.9517
C 3.5239 -1.8803 -0.9326
C 7.7874 -0.5860 -0.1324
C 7.7266 0.9366 -0.2911
N 6.4091 1.2682 0.2181
C 5.9338 2.5657 0.6440
C 4.6371 3.0975 0.2267
C 3.6662 2.5254 -0.8618
C 2.8005 3.6046 -1.5589
C 4.2654 1.7503 -2.0724
C 4.1760 4.2636 0.8847
C 4.9045 4.9165 1.8443
C 6.1526 4.4776 2.1845
C 6.7269 3.3298 1.6088
C 8.1798 2.9856 2.0462
C 8.8392 3.9596 3.0370
C 8.3511 1.5834 2.6690
H -0.9981 1.3009 -0.7478
H 0.4651 1.4978 -1.8094
H 0.3817 2.3863 -0.2782
H -0.6393 -0.2654 -2.5687
H -1.3235 -2.2542 -3.8063
H -0.6734 -4.5217 -3.0390
H 0.5917 -4.7839 -0.9380
H 1.1348 -2.8759 0.3628
H -1.7170 -0.0305 1.1450
H -2.6998 0.4056 3.3667
H -1.2529 0.9902 5.2846
H 1.1967 1.0403 5.0003
H 2.1835 0.6963 2.8425
H 8.8585 -3.1308 -0.8187
H 7.8473 -5.4642 -2.6026
H 8.8846 -5.6377 -1.1260
H 9.5023 -4.8214 -2.5988
H 6.9482 -3.2858 -3.2685
H 8.6501 -2.6494 -3.2958
H 7.3445 -1.7729 -2.4355
H 6.7377 -5.9321 -0.8001
H 4.7295 -6.3468 0.2819
H 3.3824 -4.5680 1.0772
H 2.8609 -2.4991 1.1152
H 5.2594 -0.9932 2.0845
H 4.0246 -1.8145 2.8822
H 3.6889 -0.2409 2.0008
H 4.3117 -1.2859 -1.4178
H 2.6810 -1.3181 -1.2954
H 3.5022 -2.7526 -1.6168
H 8.5100 -0.9689 -0.8660
H 8.1869 -0.8581 0.8703
H 7.7746 1.2647 -1.3533
H 8.6204 1.3646 0.1595
H 2.9206 1.9553 -0.3063
H 3.4571 4.3538 -2.0485
H 2.0827 4.0999 -0.8817
H 2.1467 3.1488 -2.3341
H 4.8705 2.4235 -2.7080
H 3.4339 1.3159 -2.6738
H 4.8800 0.8780 -1.9280
H 3.2252 4.7201 0.6915
H 4.5008 5.7989 2.3239
H 6.6484 5.0750 2.9287
H 8.7920 3.1146 1.1300
H 8.2846 3.9335 4.0007
H 8.8556 4.9917 2.6276
H 9.8913 3.6638 3.2354
H 7.9795 1.5256 3.7050
H 9.4316 1.3013 2.6357
H 7.7857 0.8068 2.1637
