84
 
P 1.0334 -0.0209 0.0919
C 0.2187 -1.4905 -0.6678
C 0.6750 -1.6325 -2.1282
C 0.3809 -3.0928 -2.4338
C 0.9068 -3.8129 -1.2049
C 0.7437 -2.8102 -0.0536
C 0.5899 -0.0450 1.8987
C 1.1069 -1.2043 2.7264
C 0.8588 -0.7108 4.1455
C 1.2990 0.7441 4.1164
C 1.1429 1.1757 2.6541
C 0.1433 1.4452 -0.8956
C -1.4097 1.4210 -0.7865
C -1.9139 2.8172 -1.2234
C -0.8886 3.7874 -0.6760
C 0.3760 2.9196 -0.3993
Ni 3.4934 -0.0209 0.0919
C 5.6434 -0.0209 0.0919
N 6.4049 -0.7777 0.9232
C 5.8685 -1.6603 1.9519
C 4.9808 -2.7391 1.3051
C 5.7358 -3.6300 0.3045
C 6.8832 -4.3988 0.9593
C 7.7013 -0.5210 0.5880
C 7.7211 0.3616 -0.4554
C 8.9238 0.8731 -0.9794
C 10.1306 0.4318 -0.4308
C 10.1262 -0.5056 0.6176
C 8.9064 -0.9928 1.1455
N 6.4538 0.6556 -0.8274
C 6.1763 1.7072 -1.8559
C 6.1944 3.0753 -1.1750
C 6.1913 3.0498 0.2252
C 6.0697 4.1553 0.9878
C 6.0939 5.3945 0.4040
C 6.1919 5.5170 -0.9914
C 6.1836 4.3552 -1.8093
H -0.8911 -1.4867 -0.6301
H 1.7787 -1.4833 -2.2034
H 0.1697 -0.9313 -2.8253
H 0.8330 -3.4697 -3.3798
H -0.7194 -3.2238 -2.4783
H 2.0003 -3.9850 -1.3454
H 0.4292 -4.8020 -1.0328
H 1.7655 -2.6772 0.3731
H 0.0640 -3.1871 0.7340
H -0.5219 -0.0277 2.0090
H 2.1925 -1.3271 2.5424
H 0.5606 -2.1491 2.5561
H 1.3563 -1.3101 4.9369
H -0.2404 -0.7270 4.3278
H 2.3799 0.8094 4.3652
H 0.7320 1.3616 4.8502
H 2.1649 1.3938 2.2693
H 0.5165 2.0836 2.5735
H 0.3914 1.4278 -1.9805
H -1.6792 1.3059 0.2811
H -1.9022 0.6216 -1.3797
H -2.9561 3.0682 -0.8983
H -1.8842 2.9159 -2.3298
H -1.2636 4.2311 0.2813
H -0.7568 4.6745 -1.3435
H 0.3823 2.8998 0.6911
H 1.3029 3.4217 -0.7406
H 5.2574 -1.0630 2.6606
H 6.6857 -2.1236 2.5397
H 4.1407 -2.2413 0.7592
H 4.5511 -3.3786 2.1058
H 6.1309 -3.0160 -0.5342
H 5.0166 -4.3635 -0.1204
H 7.6565 -3.7080 1.3478
H 7.3735 -5.0546 0.2122
H 6.4960 -5.0194 1.7949
H 8.9570 1.6015 -1.7780
H 11.0665 0.8206 -0.8203
H 11.0763 -0.8351 1.0203
H 8.9319 -1.6948 1.9644
H 5.2205 1.5376 -2.3880
H 6.9689 1.6801 -2.6456
H 6.2543 2.1730 0.8161
H 5.9642 4.0002 2.0484
H 6.0450 6.2308 1.0766
H 6.2476 6.5168 -1.4058
H 6.1877 4.4839 -2.8930
