27
 
C 0.9010 -0.6430 -0.0020
N -0.3514 -1.1239 0.1120
C -1.1239 -0.0239 0.0772
C -0.3137 1.0788 -0.0758
O 0.9302 0.6656 -0.1090
Ni 2.6584 -1.8814 -0.0135
N 4.3750 -3.0911 -0.0247
C 5.6600 -2.7160 -0.0810
N 6.4791 -3.7939 -0.0371
C 7.9241 -3.8056 -0.0810
C 8.6569 -2.6048 -0.1857
C 10.0517 -2.6279 -0.2623
C 10.7362 -3.8433 -0.2316
C 10.0282 -5.0386 -0.1126
C 8.6352 -5.0233 -0.0363
C 5.6577 -4.8688 0.0460
C 4.3580 -4.4277 0.0513
H -2.2028 -0.0260 0.1551
H -0.6290 2.1106 -0.1550
H 5.9701 -1.6834 -0.1467
H 8.1655 -1.6439 -0.2170
H 10.6014 -1.7001 -0.3513
H 11.8152 -3.8598 -0.2998
H 10.5564 -5.9825 -0.0849
H 8.1282 -5.9720 0.0503
H 5.9559 -5.9050 0.1009
H 3.4624 -5.0312 0.1150
