82
 
C 1.0240 -0.6530 -0.0550
N 1.0163 0.6804 -0.1415
C 2.1801 1.6918 -0.1810
C 2.1897 3.0714 -0.7590
C 1.0991 3.8122 -1.4961
C 0.6595 3.0970 -2.7704
C 0.0301 4.1751 -0.4994
C 3.3407 3.9259 -0.6709
C 4.4804 3.5724 -0.0269
C 4.5439 2.3449 0.4906
C 3.4864 1.4068 0.3782
C 3.9570 0.1095 0.8171
C 5.0445 -0.2306 -0.3282
C 4.2829 0.0987 2.3143
C -0.4239 1.0061 -0.0913
C -1.1667 -0.2421 -0.4747
N -0.2977 -1.2765 -0.0737
C -0.6971 -2.5993 0.4130
C 0.1936 -3.7224 0.2423
C 1.4415 -3.7559 -0.6480
C 1.7465 -5.1521 -1.2029
C 1.4094 -2.8838 -1.9667
C -0.0810 -4.9274 0.9193
C -1.2115 -5.1266 1.6373
C -2.1522 -4.1468 1.7024
C -1.9745 -2.8690 1.1184
C -3.1980 -1.9198 1.3043
C -4.1499 -2.0474 0.0855
C -4.0625 -2.1820 2.5577
Ni 2.7802 -1.8697 -0.2955
N 4.4956 -3.0582 -0.5304
C 4.7223 -3.9028 -1.5895
N 5.7833 -4.7463 -1.6088
C 6.7292 -4.7398 -0.6436
O 7.7439 -5.6396 -0.6712
C 7.7088 -6.7662 -1.4763
C 6.6243 -3.8088 0.3804
C 5.4636 -3.0239 0.4453
H 1.4354 4.8184 -1.8615
H 0.3847 2.0483 -2.5794
H 1.4885 3.1064 -3.5179
H -0.1986 3.6416 -3.2153
H -0.3514 3.3288 -0.0132
H -0.8038 4.7187 -0.9751
H 0.4710 4.7163 0.3610
H 3.3885 4.9225 -1.0912
H 5.3466 4.2225 0.0502
H 5.4986 2.0839 0.9430
H 3.1007 -0.4576 0.9103
H 5.6635 0.6220 -0.6869
H 4.5442 -0.5177 -1.2837
H 5.9218 -0.8425 -0.1232
H 5.1899 0.6565 2.5806
H 4.3270 -0.9436 2.6973
H 3.4155 0.5662 2.8502
H -0.8731 1.6562 -0.8552
H -0.6904 1.2687 0.9649
H -1.1915 -0.3284 -1.5830
H -2.2220 -0.2423 -0.2319
H 2.2470 -3.6599 0.1026
H 0.8980 -5.4921 -1.8190
H 2.0792 -5.8591 -0.4223
H 2.5987 -5.1676 -1.8671
H 0.6567 -3.1841 -2.7039
H 2.4033 -2.8732 -2.4110
H 1.4276 -1.8036 -1.9452
H 0.5652 -5.7800 0.9073
H -1.3751 -6.0819 2.1182
H -3.0226 -4.4495 2.2468
H -2.8699 -0.8908 1.5295
H -4.4800 -3.1047 -0.0319
H -3.6863 -1.7426 -0.8725
H -5.0664 -1.4312 0.2276
H -4.5821 -3.1604 2.5302
H -4.8856 -1.4384 2.6252
H -3.4307 -2.0883 3.4646
H 4.0943 -3.9605 -2.4425
H 8.6431 -7.3525 -1.3607
H 7.5932 -6.4782 -2.5421
H 6.8520 -7.4174 -1.1855
H 7.3971 -3.7205 1.1362
H 5.3675 -2.3494 1.2793
