24
 
C 1.2275 -0.0910 -0.0830
O 0.0991 -0.1443 -0.0909
Ni 3.2789 -0.0167 -0.0769
N 5.2834 0.0176 -0.1276
C 6.0302 -1.0284 -0.1465
C 5.5176 -2.4375 -0.1822
C 4.1370 -2.7253 -0.2599
C 3.6732 -4.0406 -0.2427
C 4.5712 -5.1005 -0.1762
C 5.9412 -4.8467 -0.1439
C 6.4142 -3.5287 -0.1397
N 7.4022 -0.6840 -0.1114
C 7.4949 0.7253 -0.3657
C 6.0805 1.2189 -0.0353
H 3.3897 -1.9864 -0.3495
H 2.6093 -4.2370 -0.2834
H 4.2023 -6.1174 -0.1574
H 6.6368 -5.6752 -0.1133
H 7.4827 -3.3831 -0.0980
H 8.1988 -1.3323 -0.1693
H 7.6869 0.8283 -1.4575
H 8.2962 1.2521 0.1956
H 5.7652 2.0240 -0.7291
H 6.0364 1.5713 1.0203
