47
 
P 0.9699 0.0331 -0.0894
O -0.0562 -0.9401 -1.0499
C 0.3982 -0.8198 -2.4294
C 1.9356 -0.9620 -2.7378
C -0.3151 -1.8255 -3.3266
O 0.4374 -0.2720 1.5053
C 0.8556 -1.5179 2.0116
C 2.3636 -1.7525 1.8843
C 0.4702 -1.5340 3.4940
O 0.6498 1.4630 -0.9660
C 1.1026 2.5915 -0.2686
C 2.6451 2.6340 -0.2816
C 0.5229 3.8288 -0.9769
Ni 3.4299 0.0331 -0.0894
N 5.5299 0.0331 -0.0894
C 5.5419 -1.3489 0.4057
N 6.3095 -0.0083 -1.2219
C 7.5325 0.2815 -0.9197
C 7.5955 0.8085 0.3626
C 6.2928 0.7933 0.8250
H 0.0745 0.1703 -2.8059
H 2.3365 -1.9725 -2.5052
H 2.5699 -0.2027 -2.2372
H 2.1118 -0.7841 -3.8251
H 0.0368 -2.8619 -3.1347
H -0.0949 -1.5787 -4.3924
H -1.4080 -1.7578 -3.1754
H 0.3020 -2.3332 1.4999
H 2.9354 -0.9272 2.3644
H 2.6049 -1.8118 0.8013
H 2.6526 -2.7119 2.3667
H 1.0033 -0.7268 4.0457
H 0.7176 -2.5104 3.9602
H -0.6215 -1.3574 3.5990
H 0.6991 2.6260 0.7730
H 3.0396 2.4606 -1.2945
H 3.0779 1.9013 0.3858
H 2.9649 3.6208 0.1160
H 0.8455 3.8592 -2.0391
H 0.8581 4.7611 -0.4736
H -0.5915 3.8195 -0.9544
H 5.8426 -2.0954 -0.3664
H 6.1957 -1.5366 1.2937
H 4.5095 -1.6092 0.6144
H 8.3757 0.1557 -1.5878
H 8.4650 1.1962 0.8807
H 5.9513 1.1649 1.7819
