48
 
P 1.0481 -0.0860 -0.0171
N 0.2412 1.3177 0.7628
C -1.1954 1.5729 0.7792
C 0.8952 1.6763 2.0394
N 0.4929 0.0842 -1.7056
C 0.9635 1.2666 -2.4298
C 0.8204 -1.1393 -2.4576
N 0.5679 -1.4858 1.0118
C 0.9534 -1.4732 2.4227
C -0.8438 -1.8963 0.8587
Ni 3.5081 -0.0860 -0.0171
N 5.6081 -0.0860 -0.0171
C 6.4423 -1.1336 -0.0436
N 7.7323 -0.7214 -0.0469
C 8.9203 -1.5441 -0.0316
C 8.8286 -2.9515 -0.0075
C 9.9814 -3.7368 0.0692
C 11.2390 -3.1342 0.1168
C 11.3480 -1.7448 0.0728
C 10.2013 -0.9544 -0.0026
C 7.6795 0.6328 -0.0329
C 6.3632 1.0195 -0.0136
H -1.6025 1.6061 -0.2468
H -1.3620 2.5903 1.2110
H -1.7281 0.8930 1.4587
H 1.9932 1.4874 2.0107
H 0.4499 1.1460 2.8950
H 0.7539 2.7511 2.2724
H 0.6536 2.1935 -1.9110
H 0.4638 1.2897 -3.4292
H 2.0603 1.2388 -2.6004
H 0.3465 -2.0271 -1.9899
H 1.9189 -1.3038 -2.5127
H 0.4164 -1.0836 -3.4934
H 2.0047 -1.1489 2.5436
H 0.8645 -2.5056 2.8275
H 0.2397 -0.8925 3.0351
H -1.1053 -2.0867 -0.2002
H -1.5497 -1.1671 1.2851
H -1.0318 -2.8456 1.4086
H 6.1015 -2.1586 -0.0542
H 7.8743 -3.4563 -0.0330
H 9.8972 -4.8151 0.1017
H 12.1297 -3.7428 0.1892
H 12.3216 -1.2742 0.1071
H 10.3322 0.1164 -0.0239
H 8.5196 1.3109 -0.0286
H 5.9787 2.0305 0.0031
