75
 
P 1.0088 -0.0767 0.0636
C 0.1328 0.0582 1.8245
C 0.6590 -0.9828 2.8809
C 2.1568 -0.7531 3.2428
C 2.4448 0.6692 3.7604
C 1.8173 1.7173 2.8505
C 0.3177 1.3963 2.6342
C 0.6781 1.3451 -1.2824
C -0.7964 1.6856 -1.7643
C -1.6055 2.3127 -0.6034
C -0.9045 3.6177 -0.1266
C 0.6351 3.5129 -0.0036
C 1.2859 2.7501 -1.1289
C 0.5352 -1.8456 -0.4378
C -0.9845 -2.2804 -0.5764
C -1.7358 -1.7736 -1.8333
C -0.9587 -2.0781 -3.1271
C 0.4622 -1.5564 -3.0060
C 1.2001 -2.1826 -1.7889
Ni 3.4688 -0.0767 0.0636
P 5.9288 -0.0767 0.0636
C 6.8284 1.4930 -0.1611
C 6.3993 -0.5007 1.7644
C 6.4517 -1.1302 -1.3470
C 5.9232 -0.5634 -2.6654
C 7.9954 -1.2160 -1.3785
C 5.8918 -2.5466 -1.1268
H -0.9604 -0.0957 1.7073
H 0.4893 -2.0269 2.5656
H 0.0679 -0.8770 3.8308
H 2.7772 -0.9183 2.3317
H 2.4595 -1.4626 4.0505
H 3.5457 0.8372 3.8306
H 2.0236 0.8109 4.7807
H 2.3574 1.7208 1.8824
H 1.9399 2.7171 3.3277
H -0.2666 2.2204 2.2110
H -0.1478 1.3376 3.6519
H 1.2668 1.0323 -2.1560
H -0.7514 2.4791 -2.5245
H -1.2968 1.0359 -2.5206
H -1.7086 1.6019 0.2426
H -2.6369 2.5795 -0.9421
H -1.3313 3.9414 0.8488
H -1.1062 4.4326 -0.8560
H 0.9426 2.9660 0.8455
H 1.0840 4.5193 0.0989
H 2.3814 2.6933 -1.0287
H 1.1017 3.3344 -2.0699
H 0.9679 -2.4888 0.3569
H -1.5813 -2.0610 0.3330
H -0.9918 -3.3891 -0.6936
H -1.9188 -0.7019 -1.7262
H -2.7420 -2.2446 -1.9211
H -1.4636 -1.5884 -3.9947
H -0.9163 -3.1676 -3.3303
H 0.3324 -0.4929 -2.9494
H 1.0340 -1.7345 -3.9367
H 2.2639 -1.8670 -1.7514
H 1.1699 -3.2843 -1.9389
H 6.4664 2.1973 0.6208
H 6.5025 1.9391 -1.1271
H 7.9252 1.4186 -0.1151
H 6.0133 0.2299 2.4980
H 7.5107 -0.5379 1.8150
H 6.0203 -1.5187 1.9939
H 6.3353 0.4482 -2.8537
H 4.8123 -0.5054 -2.6326
H 6.2335 -1.2160 -3.5103
H 8.4590 -0.2226 -1.5419
H 8.3426 -1.8764 -2.2005
H 8.3892 -1.6250 -0.4210
H 4.7826 -2.5316 -1.0812
H 6.2739 -2.9778 -0.1746
H 6.2041 -3.2240 -1.9514
