90
 
P 0.9158 0.0413 0.0346
C 0.1152 0.9192 1.3858
C -1.2604 1.1368 1.4585
C -1.7939 1.8826 2.5146
C -0.9582 2.4150 3.5031
C 0.4191 2.1998 3.4418
C 0.9560 1.4576 2.3856
C 0.3281 1.1391 -1.2796
C 0.6620 2.4958 -1.4159
C 0.1444 3.2399 -2.4885
C -0.7390 2.6498 -3.3992
C -1.0938 1.3107 -3.2533
C -0.5534 0.5603 -2.2104
C 0.4639 -1.6835 0.2272
C -0.8909 -2.0700 0.2159
C -1.2455 -3.4181 0.2698
C -0.2507 -4.3944 0.3131
C 1.1008 -4.0198 0.2871
C 1.4627 -2.6614 0.2446
Ni 3.3758 0.0413 0.0346
P 5.8358 0.0413 0.0346
C 6.8680 0.5433 1.5973
C 6.7373 2.0498 2.0925
C 5.3707 2.3827 2.7416
C 5.1098 1.4596 3.9363
C 5.2185 -0.0082 3.4971
C 6.5965 -0.2985 2.8682
C 6.0406 -1.8551 -0.1345
C 5.4790 -2.0948 -1.5507
C 6.5381 -1.6549 -2.6128
C 7.6868 -2.6541 -2.6316
C 8.3530 -2.7151 -1.2491
C 7.3267 -2.8040 -0.0900
C 6.2137 1.3933 -1.1949
C 5.1373 1.9871 -1.9223
C 3.7161 1.5957 -1.7758
C 5.3680 2.9496 -2.9086
C 6.6483 3.3432 -3.2397
C 6.8668 4.3730 -4.3015
C 7.7264 2.7585 -2.5937
C 7.5459 1.7936 -1.5853
C 8.8242 1.2295 -1.0316
H -1.9141 0.7569 0.6932
H -2.8584 2.0556 2.5589
H -1.3776 2.9985 4.3125
H 1.0675 2.6142 4.2074
H 2.0320 1.3119 2.3502
H 1.3139 2.9835 -0.7107
H 0.4182 4.2789 -2.6125
H -1.1552 3.2279 -4.2148
H -1.7869 0.8496 -3.9470
H -0.8413 -0.4794 -2.1246
H -1.6835 -1.3432 0.1383
H -2.2919 -3.7042 0.2635
H -0.5330 -5.4398 0.3519
H 1.8613 -4.7881 0.2906
H 2.5100 -2.3543 0.2010
H 7.9206 0.3456 1.3719
H 6.9751 2.7996 1.3116
H 7.4908 2.2223 2.9040
H 4.5613 2.2733 1.9935
H 5.3548 3.4345 3.1191
H 4.1033 1.6644 4.3691
H 5.8551 1.6700 4.7403
H 4.4218 -0.2379 2.7620
H 5.0794 -0.6474 4.3957
H 6.7295 -1.3719 2.6505
H 7.3646 -0.0342 3.6395
H 5.3814 -2.2627 0.6594
H 4.5324 -1.5368 -1.6640
H 5.2242 -3.1636 -1.7182
H 6.9747 -0.6682 -2.3959
H 6.0933 -1.5877 -3.6232
H 8.4458 -2.3734 -3.3998
H 7.2654 -3.6397 -2.9247
H 8.9787 -1.8399 -1.0858
H 9.0587 -3.5815 -1.2437
H 7.8601 -2.8012 0.8813
H 6.9225 -3.8431 -0.1947
H 3.6203 0.5208 -1.7813
H 3.1936 1.7052 -2.7463
H 3.2459 2.2109 -0.9889
H 4.5325 3.3857 -3.4466
H 5.9015 4.7551 -4.6984
H 7.4422 3.9292 -5.1401
H 7.4261 5.2250 -3.8642
H 8.7235 3.0570 -2.8969
H 9.7298 1.6635 -1.5049
H 8.8731 0.1640 -1.2461
H 8.9457 1.4572 0.0300
