26
 
P 1.1828 -0.0210 0.1431
F -0.2569 -0.2488 0.9459
F 0.8053 1.5262 -0.3985
F 0.9111 -1.2761 -0.9513
Pd 3.5774 0.0359 0.0265
N 5.5784 0.0549 0.0072
C 6.3179 -0.9987 0.0120
C 5.8008 -2.4115 -0.0179
C 4.4225 -2.7059 -0.1289
C 3.9620 -4.0255 -0.0823
C 4.8613 -5.0820 0.0282
C 6.2290 -4.8229 0.0768
C 6.6970 -3.5027 0.0670
N 7.6906 -0.6608 0.0749
C 7.7922 0.7464 -0.1912
C 6.3807 1.2491 0.1289
H 3.6778 -1.9709 -0.2711
H 2.9005 -4.2319 -0.1371
H 4.4967 -6.1012 0.0651
H 6.9266 -5.6494 0.1340
H 7.7636 -3.3561 0.1309
H 8.4831 -1.3150 0.0267
H 7.9800 0.8412 -1.2843
H 8.5956 1.2741 0.3652
H 6.0720 2.0631 -0.5554
H 6.3309 1.5892 1.1905
