14
 
P 1.1929 -0.0246 -0.0425
F -0.3672 -0.5164 0.2876
F 0.8995 1.5721 0.3884
F 1.0531 -0.3987 -1.6771
Pd 3.5854 0.0809 -0.0561
C 5.6585 0.1012 0.0045
N 6.4374 1.2009 0.0139
H 6.1279 2.1967 0.0080
C 7.7047 0.7399 0.0171
Cl 9.1408 1.7469 0.0073
C 7.6735 -0.6372 0.0166
Cl 9.0513 -1.7248 0.0061
N 6.3892 -1.0321 0.0129
H 6.0313 -2.0130 0.0063
