45
 
P 1.0633 -0.1401 -0.3565
F -0.0805 -0.3067 0.8706
F 0.9419 1.5097 -0.1467
F 0.8724 -0.4566 -2.0099
Pd 3.5058 -0.1846 -0.3242
C 5.6454 -0.0794 -0.1945
N 6.4487 -1.1858 -0.1410
C 5.9634 -2.5637 -0.1164
C 6.3612 -3.2539 1.1848
C 5.8711 -2.5001 2.4166
C 6.3234 -3.2416 3.6654
C 7.7297 -0.7295 -0.0904
C 7.6928 0.6430 -0.0768
C 8.8875 1.3930 -0.0376
C 10.1212 0.7100 -0.0252
C 10.1575 -0.6936 -0.0304
C 8.9624 -1.4339 -0.0560
N 6.3946 1.0743 -0.1152
C 5.9500 2.5025 -0.0759
C 5.0764 2.7800 1.1284
C 5.5584 2.3187 2.3411
C 4.6647 2.1233 3.3803
C 3.3917 2.6762 3.3504
C 2.9790 3.3963 2.2308
C 3.7865 3.3610 1.0723
H 6.3659 -3.1400 -0.9761
H 4.8538 -2.5555 -0.1746
H 7.4642 -3.3282 1.2426
H 5.9191 -4.2729 1.1903
H 4.7618 -2.4304 2.3945
H 6.3000 -1.4730 2.4332
H 5.9052 -4.2711 3.6652
H 5.9727 -2.7006 4.5654
H 7.4340 -3.3060 3.6867
H 8.8990 2.4711 -0.0333
H 11.0575 1.2600 -0.0150
H 11.1156 -1.2075 -0.0204
H 9.0540 -2.5111 -0.0639
H 5.4093 2.7337 -1.0099
H 6.8337 3.1593 0.0147
H 6.5838 1.9892 2.4248
H 4.9641 1.5007 4.1973
H 2.7384 2.5275 4.2006
H 2.0036 3.8713 2.2562
H 3.4062 3.7570 0.1424
