93
 
P 0.9481 0.0605 0.0604
C 0.1759 -1.7726 0.1428
C -1.3514 -1.8204 0.1168
C 0.5470 -2.8318 -0.9707
C 0.6753 -2.4640 1.4356
C 0.3591 0.9718 1.7945
C 1.0041 0.3131 3.0317
C 0.6628 2.5035 2.0744
C -1.1944 1.0285 1.9833
C 0.4941 0.8298 -1.5907
C 1.0185 2.2989 -1.9180
C 2.5597 2.2813 -1.8699
C 0.5503 2.7364 -3.3199
C 0.5206 3.4192 -0.9978
Pd 3.4081 0.0605 0.0604
C 5.5581 0.0605 0.0604
N 6.2937 -1.0117 -0.0538
C 5.8998 -2.4272 -0.1350
C 4.6837 -2.8919 -0.7286
C 3.6860 -2.0044 -1.3875
C 4.3837 -4.2791 -0.7721
C 5.2708 -5.2309 -0.2679
C 5.0167 -6.7073 -0.3584
C 6.4426 -4.8072 0.3206
C 6.7611 -3.4530 0.3970
C 8.0389 -3.1488 1.0836
C 7.6834 -0.5905 -0.0385
C 7.6498 0.8670 -0.3062
N 6.3408 1.2455 0.1198
C 5.9513 2.5803 0.4906
C 6.6598 3.7394 0.0063
C 7.8515 3.7777 -0.9409
C 6.2477 5.0163 0.4137
C 5.1801 5.1987 1.2851
C 4.7401 6.5693 1.6944
C 4.5258 4.0945 1.8011
C 4.8981 2.7977 1.4382
C 4.1816 1.6986 2.1623
H -1.7438 -1.4949 -0.8615
H -1.8107 -1.2533 0.8867
H -1.7066 -2.8533 0.3456
H 0.3750 -2.4836 -2.0034
H -0.0871 -3.7477 -0.8426
H 1.5062 -3.3703 -0.8726
H 0.0658 -2.1546 2.2755
H 1.7759 -2.3163 1.5820
H 0.4850 -3.5570 1.4738
H 2.0923 0.2311 2.8987
H 0.6338 -0.6478 3.3237
H 0.7811 0.8735 3.9646
H 1.7163 2.8048 2.1220
H 0.2849 2.8091 3.0843
H 0.0216 3.2250 1.5320
H -1.6826 0.0997 2.2461
H -1.6881 1.5632 1.1354
H -1.4901 1.5896 2.9002
H -0.6158 0.8298 -1.6670
H 0.8891 0.1616 -2.3800
H 2.9395 1.5520 -2.5965
H 2.9530 1.9317 -0.8890
H 2.9533 3.3011 -2.1073
H 0.8864 2.0042 -4.0727
H 0.9812 3.7341 -3.5818
H -0.5587 2.8444 -3.3676
H 1.0912 3.3013 -0.1017
H -0.5917 3.4496 -0.8822
H 0.8415 4.4366 -1.3225
H 4.0132 -0.9840 -1.6141
H 2.8666 -1.9273 -0.6716
H 3.3673 -2.4359 -2.3620
H 3.4693 -4.6304 -1.2381
H 4.0423 -6.9351 -0.8350
H 5.0406 -7.1511 0.6594
H 5.8246 -7.1765 -0.9648
H 7.1288 -5.5489 0.7181
H 8.5758 -3.9734 1.5809
H 7.7739 -2.4476 1.9002
H 8.7273 -2.8259 0.2829
H 8.3080 -1.0693 -0.8261
H 8.0957 -0.6561 0.9834
H 7.6785 0.9347 -1.4152
H 8.4812 1.3651 0.2471
H 8.2545 2.8773 -1.3886
H 8.7189 4.2192 -0.4053
H 7.5945 4.3874 -1.8263
H 6.7716 5.8870 0.0385
H 5.3583 7.3539 1.2117
H 4.8283 6.6716 2.7960
H 3.6804 6.7209 1.3974
H 3.7145 4.2518 2.5036
H 3.5705 2.0700 3.0064
H 4.8752 0.9453 2.5871
H 3.4263 1.2968 1.5191
