99
 
P 0.9401 0.0700 -0.0389
C 0.1405 -0.1601 1.7547
C -1.3906 -0.1683 1.7747
C 0.5166 -1.4471 2.5679
C 0.6679 0.9517 2.6976
C 0.3666 1.9309 -0.6745
C 0.8864 3.0612 0.2109
C 0.8232 2.4501 -2.0963
C -1.1693 2.1368 -0.7713
C 0.4863 -1.4414 -1.0554
C 1.0368 -1.5596 -2.5453
C 2.5737 -1.5491 -2.5009
C 0.5479 -2.8631 -3.2040
C 0.5867 -0.4587 -3.5070
Pd 3.4001 0.0700 -0.0389
P 5.8601 0.0700 -0.0389
C 6.8241 -1.3162 0.7992
C 6.4378 -1.5362 2.3093
C 5.0139 -2.1218 2.4989
C 4.8261 -3.4414 1.7296
C 5.2200 -3.2807 0.2539
C 6.6388 -2.6922 0.1047
C 6.1319 -0.0634 -1.9348
C 5.4016 1.0799 -2.7039
C 6.0750 2.4594 -2.5338
C 7.4947 2.4316 -3.1066
C 8.2553 1.3217 -2.4090
C 7.5982 -0.0663 -2.4919
C 6.4415 1.6046 0.8911
C 5.4180 2.4426 1.3961
C 4.0216 2.0616 1.3475
C 5.6568 3.6982 1.9348
C 6.9351 4.1718 2.0581
C 7.1679 5.5189 2.6574
C 7.9970 3.3714 1.6616
C 7.8150 2.0847 1.0924
C 9.1610 1.3766 0.8174
H -1.7965 -1.0932 1.3273
H -1.8269 0.6542 1.2676
H -1.7678 -0.0572 2.8189
H 0.2447 -2.3907 2.0648
H -0.0815 -1.4520 3.5247
H 1.5633 -1.4770 2.9432
H 0.2098 1.9016 2.5131
H 1.7782 0.9972 2.6656
H 0.3873 0.8130 3.7640
H 1.9089 2.8689 0.3454
H 0.3957 3.2376 1.1514
H 0.8011 4.0738 -0.2362
H 1.9217 2.5100 -2.2403
H 0.4762 3.5016 -2.2624
H 0.2495 2.0724 -2.9611
H -1.6745 2.2391 0.1855
H -1.6421 1.3927 -1.4489
H -1.4174 3.1489 -1.1633
H -0.6245 -1.4912 -1.0914
H 0.8487 -2.3292 -0.5018
H 2.9363 -2.3568 -1.8518
H 2.9452 -0.6014 -2.0699
H 2.9947 -1.6598 -3.5278
H 0.8236 -3.7359 -2.5876
H 1.0136 -2.9826 -4.2128
H -0.5551 -2.8473 -3.3621
H 1.1692 0.3880 -3.2191
H -0.5193 -0.3043 -3.5296
H 0.9254 -0.6195 -4.5564
H 7.8885 -1.0690 0.7327
H 6.5286 -0.6012 2.9010
H 7.1494 -2.2691 2.7601
H 4.2721 -1.3803 2.1487
H 4.8158 -2.3213 3.5802
H 3.7628 -3.7731 1.8006
H 5.4468 -4.2407 2.1933
H 4.4957 -2.6187 -0.2572
H 5.1807 -4.2839 -0.2324
H 6.8957 -2.6118 -0.9672
H 7.3546 -3.4130 0.5618
H 5.6739 -1.0292 -2.2316
H 4.3509 1.1468 -2.3808
H 5.4225 0.8519 -3.7958
H 6.1176 2.7261 -1.4583
H 5.5040 3.2573 -3.0468
H 7.9930 3.4085 -2.8903
H 7.4972 2.2817 -4.2060
H 8.1470 1.6297 -1.3975
H 9.3212 1.3010 -2.7379
H 8.2223 -0.8305 -1.9826
H 7.5926 -0.3338 -3.5767
H 3.9139 1.0131 1.6055
H 3.7507 2.2883 0.3236
H 3.4329 2.5444 2.1457
H 4.8234 4.3214 2.2497
H 6.2106 6.0156 2.9322
H 7.7089 6.1664 1.9378
H 7.7644 5.3780 3.5796
H 8.9874 3.7830 1.8013
H 10.0028 1.9897 1.1974
H 9.5661 1.1934 -0.1854
H 9.2255 0.4289 1.3614
