47
 
P 1.0441 -0.0355 0.0825
C 0.3002 1.0229 -1.2381
C -1.2172 1.0526 -1.3301
C 0.8658 2.4457 -1.0943
C 0.4949 -1.7603 -0.2262
C 0.9831 -2.3397 -1.5482
C 0.9336 -2.6502 0.9447
C 0.5676 0.7869 1.6348
Pd 3.5041 -0.0355 0.0825
P 5.9641 -0.0355 0.0825
N 6.8488 0.3721 1.5583
C 8.2867 0.3214 1.4616
C 8.6923 -0.0534 0.0477
C 10.2185 -0.0677 -0.0086
C 8.1012 -1.4973 -0.2514
N 6.6272 -1.6362 -0.0887
N 6.6322 1.2535 -0.8751
C 8.1055 1.0469 -0.9386
H 0.6874 0.6414 -2.2085
H -1.6674 1.4001 -0.3818
H -1.6037 0.0536 -1.6125
H -1.5061 1.7617 -2.1410
H 0.5029 2.9326 -0.1675
H 0.5606 3.0788 -1.9537
H 1.9797 2.4203 -1.0729
H -0.6165 -1.7455 -0.2391
H 2.0849 -2.4719 -1.5400
H 0.6834 -1.6908 -2.3934
H 0.5038 -3.3332 -1.7013
H 2.0417 -2.6739 1.0287
H 0.5597 -3.6879 0.8080
H 0.5137 -2.2692 1.9015
H -0.5431 0.8037 1.6923
H 0.9693 1.8106 1.7240
H 0.9328 0.1744 2.4850
H 6.5023 -0.2541 2.3234
H 8.6797 -0.4102 2.2051
H 8.6734 1.3243 1.7452
H 10.6146 -0.7987 0.7310
H 10.6112 0.9381 0.2617
H 10.5670 -0.3400 -1.0217
H 8.5859 -2.2399 0.4220
H 8.3693 -1.7811 -1.2897
H 6.3648 -2.2132 0.7423
H 6.3715 2.1714 -0.4486
H 8.5920 2.0263 -0.7298
H 8.3758 0.7681 -1.9778
