81
 
P 1.0900 0.0292 0.0323
C 0.3822 -0.9041 -1.4869
C -0.8214 -1.7025 -1.4651
C -1.6892 -1.9138 -0.2921
C -1.3670 -2.2593 -2.6106
C -0.7558 -2.1585 -3.8322
C -1.4178 -2.8596 -4.9904
C 0.4445 -1.4404 -3.9287
C 1.0226 -0.8042 -2.7811
C 2.3146 -0.0357 -2.9820
C 0.8233 -0.9940 1.6309
C 1.5999 -2.1647 2.0328
C 2.9551 -2.6215 1.5310
C 1.1236 -3.0196 3.0533
C -0.0488 -2.7704 3.7420
C -0.5412 -3.7194 4.8027
C -0.7437 -1.6078 3.4745
C -0.3329 -0.7052 2.4728
C -1.2402 0.4978 2.3246
C 0.4757 1.7639 0.0721
C -0.8010 2.1769 -0.4784
C -1.8014 1.3679 -1.2300
C -1.2624 3.4645 -0.3039
C -0.5199 4.4014 0.3735
C -1.1043 5.7647 0.5429
C 0.7337 4.0528 0.8939
C 1.2360 2.7381 0.7730
C 2.5601 2.4000 1.4326
Pd 3.5500 0.0292 0.0323
N 5.6500 0.0292 0.0323
C 6.2780 -0.4030 -1.0815
C 7.6593 -0.5518 -1.0946
C 8.4275 -0.2682 0.0652
N 9.8575 -0.5326 0.1161
C 10.6096 -1.0955 -1.0035
C 10.6590 -0.3491 1.3222
C 7.7143 0.2408 1.1870
C 6.3282 0.3809 1.1449
H -1.1667 -1.6463 0.5595
H -1.9486 -2.9790 -0.1736
H -2.6007 -1.2826 -0.3693
H -2.3090 -2.7937 -2.5369
H -2.3579 -3.3734 -4.6715
H -0.7399 -3.6504 -5.3650
H -1.6940 -2.1519 -5.7967
H 0.9072 -1.3689 -4.9104
H 2.6840 -0.1655 -4.0336
H 3.0973 -0.3697 -2.2356
H 2.1259 1.0537 -2.8789
H 3.4126 -2.0172 0.7404
H 2.9529 -3.7001 1.2496
H 3.6529 -2.5646 2.4077
H 1.6749 -3.9174 3.3201
H 0.1186 -4.6082 4.8998
H -1.5693 -4.0840 4.5776
H -0.5498 -3.1840 5.7724
H -1.6510 -1.4265 4.0424
H -1.9777 0.5629 3.1564
H -1.8438 0.4789 1.3988
H -0.6435 1.4220 2.4093
H -1.4771 0.4226 -1.2988
H -1.9237 1.7106 -2.2770
H -2.7810 1.2832 -0.7137
H -2.2409 3.7332 -0.6981
H -2.1288 5.8242 0.1052
H -0.4633 6.5008 0.0248
H -1.1897 5.9938 1.6233
H 1.2979 4.8033 1.4288
H 3.0540 3.3098 1.8333
H 3.2756 1.9419 0.7323
H 2.4061 1.6836 2.2656
H 5.6922 -0.6644 -1.9536
H 8.0613 -0.9241 -2.0170
H 10.0406 -1.2754 -1.9234
H 11.0317 -2.0798 -0.7062
H 11.4425 -0.4155 -1.2769
H 10.1234 0.0383 2.1967
H 11.4913 0.3549 1.1169
H 11.0816 -1.3286 1.6337
H 8.1650 0.5099 2.1229
H 5.7838 0.7234 2.0157
