82
 
P 1.0290 0.0624 0.0726
C 0.2956 1.6826 0.3620
C -1.0735 2.0154 0.3502
C -2.1512 1.0115 0.0878
C -1.4471 3.3559 0.5755
C -0.4834 4.3449 0.8043
C 0.8665 4.0124 0.8119
C 1.2500 2.6938 0.5934
C 0.4341 -0.2772 -1.6618
C 0.7920 0.4912 -2.7934
C 1.7599 1.6050 -2.7305
C 0.2577 0.1958 -4.0673
C -0.6025 -0.8785 -4.2521
C -0.9577 -1.6597 -3.1633
C -0.4638 -1.3530 -1.8889
C 0.6169 -0.9782 1.5164
C 0.5245 -2.4073 1.4223
C 0.9369 -3.2319 0.2249
C 0.0074 -3.1371 2.5052
C -0.3538 -2.5008 3.6870
C -0.1821 -1.1249 3.8159
C 0.2859 -0.3668 2.7378
Pd 3.4890 0.0624 0.0726
P 5.9490 0.0624 0.0726
C 6.9260 1.4911 0.6489
C 6.5981 2.0272 1.9161
C 7.2226 3.1850 2.3961
C 8.1863 3.8256 1.6206
C 8.5220 3.3099 0.3642
C 7.8930 2.1507 -0.1266
C 6.3672 -1.1469 1.3558
C 5.3667 -1.8271 2.0665
C 5.7217 -2.7826 3.0367
C 7.0689 -3.0565 3.3026
C 8.0669 -2.3914 2.5894
C 7.7196 -1.4471 1.6160
C 6.3301 -0.2339 -1.7049
C 5.9413 0.6319 -2.7619
O 5.2254 1.7542 -2.4954
C 4.8166 2.6668 -3.4536
C 6.2886 0.2970 -4.0980
C 6.9892 -0.8665 -4.3909
C 7.3568 -1.7254 -3.3642
C 7.0321 -1.4156 -2.0363
H -1.7569 -0.0040 -0.0665
H -2.7076 1.3139 -0.8245
H -2.8398 0.9695 0.9537
H -2.4903 3.6402 0.5681
H -0.7800 5.3722 0.9722
H 1.6193 4.7738 0.9835
H 2.3110 2.4621 0.6009
H 2.3142 1.6462 -1.7768
H 1.2519 2.5666 -2.9432
H 2.4820 1.3778 -3.5243
H 0.5305 0.7896 -4.9325
H -0.9894 -1.1043 -5.2403
H -1.6271 -2.5001 -3.3088
H -0.8112 -1.9698 -1.0831
H 1.4000 -2.6357 -0.5811
H 0.0652 -3.8004 -0.1703
H 1.6997 -3.9770 0.5320
H -0.1210 -4.2122 2.4301
H -0.7575 -3.0815 4.5072
H -0.4382 -0.6424 4.7492
H 0.3795 0.7022 2.8623
H 5.8321 1.5681 2.5303
H 6.9506 3.5966 3.3630
H 8.6635 4.7273 1.9905
H 9.2623 3.8245 -0.2335
H 8.1507 1.7907 -1.1100
H 4.3202 -1.6245 1.8584
H 4.9575 -3.3170 3.5864
H 7.3423 -3.7874 4.0564
H 9.1096 -2.6115 2.7904
H 8.5097 -0.9507 1.0668
H 4.1766 3.4375 -2.9807
H 4.2410 2.1673 -4.2596
H 5.6902 3.1413 -3.9404
H 6.0165 0.9251 -4.9356
H 7.2391 -1.1020 -5.4206
H 7.8949 -2.6344 -3.6063
H 7.3347 -2.1127 -1.2674
