50
 
P 1.0801 -0.0282 -0.0528
C 0.1423 1.2720 0.8063
C 0.6448 0.5931 -1.7032
C 0.4650 -1.5658 0.6502
C -0.9097 -1.8339 0.6003
C -1.4233 -3.0035 1.1676
C -0.5662 -3.9131 1.7922
C 0.8063 -3.6565 1.8372
C 1.3155 -2.4863 1.2639
Pd 3.5401 -0.0282 -0.0528
C 5.6901 -0.0282 -0.0528
N 6.4011 -1.0875 -0.1688
C 5.8699 -2.4340 -0.2630
C 5.1399 -2.7450 1.0211
C 4.9099 -2.5792 -1.4548
C 7.8114 -0.7667 -0.1776
C 7.8343 0.7649 -0.3209
N 6.4845 1.1328 0.0143
C 6.0474 2.4691 0.3860
C 4.8976 2.9074 -0.5072
C 5.6314 2.5305 1.8701
H -0.9522 1.1862 0.7167
H 0.5098 2.2696 0.4802
H 0.4282 1.1849 1.8820
H -0.4683 0.6057 -1.7776
H 0.9985 -0.1493 -2.4496
H 1.0523 1.5948 -1.9228
H -1.5842 -1.1358 0.1229
H -2.4860 -3.2004 1.1263
H -0.9656 -4.8135 2.2404
H 1.4726 -4.3601 2.3210
H 2.3576 -2.2908 1.3120
H 6.7066 -3.1576 -0.3936
H 4.3334 -1.9763 1.0862
H 5.8525 -2.6591 1.8719
H 4.7338 -3.7790 1.0023
H 4.0346 -1.9006 -1.3319
H 4.5302 -3.6229 -1.5094
H 5.4304 -2.3516 -2.4092
H 8.3761 -1.2468 -1.0047
H 8.2226 -1.0834 0.8071
H 7.9844 1.0545 -1.3850
H 8.6134 1.2200 0.3264
H 6.8979 3.1773 0.2641
H 4.0287 2.2439 -0.3636
H 5.2246 2.8672 -1.5657
H 4.5876 3.9412 -0.2502
H 4.7862 1.8449 2.0912
H 5.3183 3.5657 2.1335
H 6.4848 2.2695 2.5346
