53
 
P 1.0603 -0.0537 -0.0590
C 0.1516 -0.6811 1.3833
C 0.5923 1.6810 0.1987
C 0.6506 -1.0861 -1.4408
C -0.6906 -1.2164 -1.8476
C -1.0188 -2.0312 -2.9318
C -0.0079 -2.7169 -3.6089
C 1.3378 -2.5595 -3.2200
C 1.6818 -1.7251 -2.1319
Pd 3.5203 -0.0537 -0.0590
P 5.9803 -0.0537 -0.0590
N 6.9427 1.2537 -0.7882
C 6.3786 1.4632 -2.1413
C 6.6659 2.5264 -0.0562
O 6.3372 -1.3004 -1.0702
C 6.3921 -2.4986 -0.4482
C 5.5649 -3.5194 -0.9346
C 5.5420 -4.7732 -0.3243
C 6.3691 -5.0345 0.7644
C 7.2197 -4.0407 1.2529
C 7.2406 -2.7464 0.6815
C 8.1775 -1.7255 1.2895
C 9.5052 -2.1415 1.5309
C 10.4518 -1.2654 2.0641
C 10.0874 0.0302 2.4159
C 8.7803 0.4615 2.2284
C 7.8238 -0.3754 1.6514
O 6.6042 0.1707 1.4470
H -0.9448 -0.6354 1.2922
H 0.5137 -0.1513 2.2931
H 0.4735 -1.7419 1.5082
H -0.5203 1.7421 0.1669
H 0.9579 2.2534 -0.6823
H 0.9813 2.1196 1.1324
H -1.4822 -0.6822 -1.3328
H -2.0549 -2.1327 -3.2432
H -0.2745 -3.3615 -4.4403
H 2.1017 -3.0889 -3.7708
H 2.7320 -1.5432 -1.7876
H 6.5336 0.5721 -2.7778
H 6.8573 2.3300 -2.6477
H 5.2764 1.6738 -2.1106
H 6.9766 2.4880 1.0051
H 5.5836 2.8170 -0.0703
H 7.2305 3.3729 -0.5063
H 4.9151 -3.3289 -1.7790
H 4.8790 -5.5444 -0.6950
H 6.3471 -6.0102 1.2357
H 7.8422 -4.2807 2.1074
H 9.8277 -3.1426 1.2681
H 11.4743 -1.5908 2.2018
H 10.8193 0.7108 2.8276
H 8.5100 1.4723 2.5026
