48
 
P 0.9087 0.0351 0.0207
C 0.1557 0.5307 -1.5939
C -1.3629 0.5256 -1.6829
C 0.7234 1.9037 -1.9925
C 0.3622 -1.6825 0.3688
C 0.8516 -2.7053 -0.6495
C 0.8048 -2.0788 1.7836
C 0.4497 1.3858 1.1512
Pd 3.3687 0.0351 0.0207
N 5.4687 0.0351 0.0207
C 6.0932 0.1204 -1.1860
C 7.4867 0.1391 -1.2654
C 8.2374 0.0845 -0.0944
C 7.5876 0.0134 1.1415
C 8.3178 -0.0128 2.3279
C 7.6603 -0.0771 3.5529
C 6.2510 -0.1347 3.6220
C 5.5240 -0.2252 4.9268
O 4.3041 -0.3048 4.9219
C 6.2043 -0.2339 6.2727
C 5.5169 -0.1071 2.4139
C 6.1764 -0.0222 1.1822
H 0.5373 -0.1847 -2.3549
H -1.8116 1.2035 -0.9330
H -1.7499 -0.5060 -1.5673
H -1.6564 0.8780 -2.6993
H 0.3627 2.7038 -1.3160
H 0.4195 2.1708 -3.0263
H 1.8372 1.8853 -1.9624
H -0.7492 -1.6760 0.3533
H 1.9546 -2.8172 -0.5989
H 0.5456 -2.4163 -1.6733
H 0.3798 -3.6882 -0.4235
H 1.9133 -2.0708 1.8678
H 0.4303 -3.0935 2.0394
H 0.3871 -1.3714 2.5333
H -0.6600 1.4357 1.2029
H 0.8610 2.3629 0.8443
H 0.8196 1.1374 2.1673
H 5.5032 0.1766 -2.0907
H 7.9818 0.2034 -2.2255
H 9.3195 0.1040 -0.1515
H 9.4004 0.0246 2.3106
H 8.2886 -0.0844 4.4247
H 7.3011 -0.1384 6.2408
H 5.9731 -1.1872 6.7905
H 5.8252 0.6136 6.8800
H 4.4331 -0.1475 2.4228
