32
 
P 1.0323 -0.0724 -0.0610
C 0.0990 1.4881 -0.0844
C 0.5839 -0.5067 -1.7662
C 0.5271 -0.9274 1.4225
C -0.8385 -1.1775 1.6161
C -1.2803 -1.8310 2.7653
C -0.3578 -2.2351 3.7323
C 1.0116 -1.9973 3.5396
C 1.4621 -1.3467 2.3765
Pd 3.4923 -0.0724 -0.0610
O 5.5423 -0.0724 -0.0610
C 5.9122 1.0922 -0.7180
C 7.4391 1.1599 -0.7726
C 5.2363 1.1726 -2.0711
H -0.9959 1.3676 -0.0987
H 0.4587 2.1188 -0.9268
H 0.3966 2.0304 0.8448
H -0.5290 -0.5481 -1.8257
H 0.9442 -1.5410 -1.9546
H 0.9845 0.1890 -2.5228
H -1.5624 -0.8684 0.8722
H -2.3380 -2.0200 2.9034
H -0.7093 -2.7351 4.6266
H 1.7153 -2.3199 4.2955
H 2.5248 -1.1610 2.2093
H 5.5658 1.9487 -0.0992
H 7.8534 0.3226 -1.3717
H 7.8457 1.0805 0.2619
H 7.7762 2.1280 -1.1975
H 5.5762 0.3375 -2.7186
H 5.5020 2.1385 -2.5545
H 4.1311 1.1175 -1.9148
