52
 
P 1.0425 0.0863 -0.0273
C 0.3474 1.6109 -0.7250
C -0.9969 1.8456 -1.0589
C -1.3391 2.9989 -1.7981
C -0.3542 3.9171 -2.1914
Cl -0.7666 5.3110 -3.1801
C 0.9722 3.7070 -1.8228
C 1.3171 2.5649 -1.0991
C 0.7512 -1.2537 -1.2181
C 1.8555 -1.9367 -1.7342
C 1.6733 -3.0217 -2.6141
C 0.3826 -3.4268 -2.9810
Cl 0.1510 -4.7901 -4.0697
C -0.7269 -2.7483 -2.4704
C -0.5476 -1.6669 -1.5918
C 0.4470 0.0444 1.6894
C -0.3173 -1.0892 2.0630
C -0.8529 -1.2122 3.3490
C -0.6271 -0.2090 4.2887
Cl -1.3431 -0.3372 5.8889
C 0.1630 0.8977 3.9468
C 0.7039 1.0259 2.6520
Pd 3.5025 0.0863 -0.0273
N 5.6025 0.0863 -0.0273
C 6.2452 1.0982 0.5902
C 5.4108 2.2151 1.1126
C 7.6446 1.0603 0.7157
C 8.3428 -0.0473 0.2185
C 7.6527 -1.0672 -0.4374
C 6.2629 -0.9715 -0.5739
C 5.4892 -2.0230 -1.2992
H -1.7672 1.1335 -0.8094
H -2.3639 3.1699 -2.1008
H 1.7431 4.4085 -2.1261
H 2.3646 2.4052 -0.8671
H 2.8435 -1.6162 -1.4248
H 2.5270 -3.5589 -3.0079
H -1.7262 -3.0696 -2.7498
H -1.4269 -1.1750 -1.2012
H -0.5134 -1.8903 1.3588
H -1.4509 -2.0810 3.6122
H 0.3472 1.6624 4.6878
H 1.3084 1.8837 2.4046
H 4.3155 1.9657 0.9308
H 5.7070 3.1512 0.5863
H 5.6069 2.3454 2.1964
H 8.1863 1.8568 1.2086
H 9.4173 -0.1178 0.3332
H 8.1916 -1.9228 -0.8278
H 6.1493 -2.8281 -1.6866
H 4.9944 -1.5437 -2.1707
H 4.7272 -2.4701 -0.6304
