85
 
P 0.9660 -0.0626 0.0702
C 0.1588 -1.5926 0.6533
C -1.1967 -1.6292 1.0728
C -2.0724 -0.4123 1.1354
C -1.7610 -2.8428 1.4957
C -1.0245 -4.0300 1.5090
C -1.6622 -5.3241 1.9158
C 0.3205 -4.0028 1.1628
C 0.9293 -2.7980 0.7752
C 2.4016 -2.8285 0.5253
C 0.7354 1.0278 1.6827
C 0.1939 0.6671 2.9894
C 0.0867 -0.7101 3.5949
C -0.2579 1.6800 3.8793
C -0.1262 3.0327 3.5784
C -0.6778 4.1232 4.4516
C 0.5851 3.3809 2.4555
C 1.0424 2.4008 1.5734
C 1.8270 2.8138 0.4524
C 0.3559 0.3569 -1.7700
C -0.5264 -0.5751 -2.4976
C -1.0990 -1.9189 -2.1055
C -0.9945 -0.2983 -3.8002
C -0.6745 0.8430 -4.4764
C -1.1788 1.1354 -5.8546
C 0.1353 1.7499 -3.8844
C 0.6790 1.5864 -2.5991
C 1.5206 2.8560 -2.3652
Pd 3.4260 -0.0626 0.0702
C 5.5760 -0.0626 0.0702
N 6.3120 -1.1167 0.1348
C 5.8197 -2.4498 0.3398
C 5.1270 -2.9159 -0.9153
C 7.7175 -0.7888 0.1163
C 7.7184 0.6688 -0.3321
N 6.3879 1.0892 0.0181
C 5.9425 2.4550 0.0269
C 5.8905 2.9044 1.4804
H -1.5812 0.5168 0.8025
H -2.3774 -0.2628 2.1936
H -2.9696 -0.5598 0.5155
H -2.7931 -2.8597 1.8111
H -2.7134 -5.1655 2.2334
H -1.1004 -5.7785 2.7584
H -1.6590 -6.0262 1.0539
H 0.8959 -4.9259 1.2182
H 2.8261 -3.8567 0.6672
H 2.9272 -2.1584 1.2293
H 2.5606 -2.4664 -0.4871
H 0.6028 -1.4948 3.0357
H -0.9601 -0.9832 3.8355
H 0.6388 -0.6934 4.5627
H -0.7281 1.4116 4.8194
H -1.2085 3.7189 5.3370
H -1.4023 4.7354 3.8650
H 0.1479 4.7846 4.7843
H 0.7570 4.4326 2.2460
H 1.9458 3.9174 0.3546
H 1.0729 2.4760 -0.2114
H 2.7980 2.2040 0.3883
H -0.8664 -2.3944 -1.1929
H -0.7605 -2.6830 -2.8340
H -2.2115 -1.8563 -2.1312
H -1.6429 -0.9991 -4.3175
H -1.8114 0.3156 -6.2452
H -0.3058 1.2760 -6.5286
H -1.7698 2.0770 -5.8313
H 0.3263 2.6336 -4.4886
H 1.6728 3.5366 -3.2328
H 2.5508 2.6239 -2.0396
H 0.9293 3.6146 -1.7977
H 5.1555 -2.4463 1.2289
H 6.6558 -3.1492 0.5604
H 4.3972 -2.1387 -1.2059
H 4.6637 -3.9082 -0.7335
H 5.8537 -3.0023 -1.7436
H 8.3189 -1.4203 -0.5741
H 8.0913 -0.8856 1.1590
H 7.7915 0.7206 -1.4429
H 8.5371 1.2481 0.1433
H 4.9600 2.5542 -0.4778
H 6.6856 3.0933 -0.5012
H 5.1602 2.2831 2.0402
H 5.6112 3.9739 1.5533
H 6.8964 2.7662 1.9406
