117
 
P 0.9834 -0.0821 0.0546
C 0.1572 -0.5193 1.8771
C 0.6681 -1.8801 2.4787
C 2.1537 -1.8034 2.8506
C 2.4258 -0.6835 3.8977
C 1.6659 0.6020 3.5851
C 0.2242 0.4130 3.1506
C 0.3589 1.7276 -0.7129
C -1.1417 2.0689 -1.0107
C -1.8813 2.4431 0.3093
C -1.2310 3.5393 1.1444
C 0.2618 3.3645 1.2261
C 0.7848 3.1464 -0.1521
C -0.1095 -1.6055 -0.5755
C -1.5629 -1.7176 -0.6019
C -2.4545 -0.7225 -0.0882
C -2.2714 -2.8664 -0.9912
C -1.6045 -4.0095 -1.3241
C -0.2219 -3.9861 -1.2986
C 0.4704 -2.7969 -0.9407
Pd 3.4434 -0.0821 0.0546
C 5.5934 -0.0821 0.0546
N 6.3598 -1.1627 -0.0451
C 6.1114 -2.6648 -0.0836
C 5.0761 -3.4322 -0.7782
C 3.8917 -2.8542 -1.5033
C 4.2443 -1.9151 -2.6183
C 2.9962 -3.9732 -2.1223
C 5.1117 -4.8811 -0.7611
C 6.0332 -5.6126 -0.1353
C 6.9313 -4.9677 0.6072
C 6.9742 -3.5447 0.6999
C 7.8131 -2.9906 1.8145
C 6.7672 -2.1768 2.7422
C 8.5904 -4.0446 2.6221
C 7.7368 -0.6617 0.0651
C 7.7339 0.8101 -0.0723
N 6.4052 1.1901 0.2081
C 6.0970 2.6586 0.3919
C 7.0269 3.7010 0.7833
C 8.5423 3.5448 0.9000
C 9.2624 4.8410 0.5710
C 9.0096 3.0163 2.2726
C 6.5047 5.0069 1.0702
C 5.1907 5.3566 0.9169
C 4.3391 4.4510 0.4486
C 4.7861 3.1606 0.1913
C 3.7968 2.2779 -0.1270
C 3.1913 2.1066 1.2648
C 3.2078 2.0577 -1.5200
H -0.9145 -0.6634 1.8201
H 0.4760 -2.7369 1.8092
H 0.1149 -2.1146 3.4244
H 2.6928 -1.6467 1.8937
H 2.5116 -2.7682 3.2758
H 3.5226 -0.4642 3.9186
H 2.1185 -0.9921 4.9131
H 2.0463 0.8513 2.7123
H 1.8865 1.4547 4.2683
H -0.3659 1.3263 3.0033
H -0.3054 -0.0016 4.0376
H 0.6971 1.6553 -1.7698
H -1.6335 1.3011 -1.6455
H -1.2034 2.9693 -1.6921
H -1.8037 1.6404 1.0199
H -2.9472 2.6800 0.1233
H -1.6348 3.4879 2.1793
H -1.4128 4.5335 0.7008
H 0.5846 2.4998 1.7720
H 0.7195 4.2385 1.7312
H 1.7813 3.4118 -0.1100
H 0.4761 3.9876 -0.8154
H -1.7583 -0.0009 0.1120
H -2.8764 -1.1689 0.8411
H -3.2235 -0.3303 -0.7746
H -3.3599 -2.8866 -0.9726
H -2.1775 -4.9048 -1.5471
H 0.2943 -4.9092 -1.5216
H 1.4686 -2.7700 -0.8532
H 3.3549 -2.3260 -0.7283
H 4.8911 -2.4592 -3.3316
H 4.7415 -1.0128 -2.2304
H 3.2973 -1.6094 -3.1172
H 3.5996 -4.5608 -2.8394
H 2.1231 -3.6495 -2.7060
H 2.6037 -4.5933 -1.2694
H 4.4238 -5.5745 -1.2097
H 5.9916 -6.7018 -0.1703
H 7.5368 -5.6733 1.1410
H 8.6810 -2.4872 1.3747
H 5.7462 -2.6481 2.7640
H 6.4700 -1.1646 2.3934
H 7.0629 -1.9952 3.7884
H 7.8489 -4.5886 3.2180
H 9.3856 -3.5595 3.2216
H 9.1634 -4.7966 2.0203
H 8.5077 -1.0628 -0.6247
H 8.0380 -0.6950 1.1193
H 7.9838 1.1824 -1.0869
H 8.4609 1.1493 0.6632
H 8.9100 2.9676 0.0341
H 9.0849 5.5982 1.3514
H 8.8982 5.1897 -0.4257
H 10.3509 4.6735 0.5427
H 8.7628 3.7606 3.0527
H 10.1125 2.8643 2.2607
H 8.5443 2.0541 2.5749
H 7.0797 5.8224 1.4234
H 4.8073 6.3340 1.1481
H 3.3001 4.7394 0.3607
H 4.2486 1.5210 -0.2282
H 2.7638 2.9587 1.8179
H 3.8476 1.5375 1.9605
H 2.4517 1.4903 0.9609
H 2.5522 2.8296 -1.9305
H 2.7107 1.0602 -1.5934
H 4.0172 1.9317 -2.2559
