72
 
P 1.0874 0.0123 0.0470
C 0.6691 0.8503 -1.4995
C -0.2468 1.9161 -1.5170
C -0.6192 2.5209 -2.7159
C -0.0882 2.0606 -3.9191
C 0.8270 1.0029 -3.9180
C 1.2102 0.4021 -2.7117
C 0.6417 -1.7369 0.0235
C -0.0286 -2.2947 -1.0838
C -0.3950 -3.6446 -1.0837
C -0.1038 -4.4463 0.0212
C 0.5547 -3.8985 1.1259
C 0.9281 -2.5493 1.1273
C 0.2091 0.7561 1.4702
C 0.6946 2.1904 1.6475
C -0.2491 3.2328 1.6518
C 0.1510 4.5667 1.7227
C 1.5040 4.8862 1.8258
C 2.4648 3.8652 1.8702
C 2.0758 2.5106 1.7751
Pd 3.5474 0.0123 0.0470
P 6.0074 0.0123 0.0470
C 6.7161 1.5925 0.5768
C 7.5266 1.8264 1.6983
C 7.8288 3.1515 2.0718
C 7.3317 4.2354 1.3353
C 6.5521 4.0060 0.2061
C 6.2505 2.6975 -0.1693
C 6.4056 -1.1558 1.3930
C 7.1377 -2.3111 1.0298
C 7.4698 -3.2894 1.9720
C 7.0774 -3.1338 3.2980
C 6.3478 -2.0009 3.6781
C 6.0057 -1.0131 2.7316
C 6.4974 -0.3875 -1.6474
C 5.5280 -0.6122 -2.6316
C 5.9364 -1.0070 -3.9164
C 7.2939 -1.1756 -4.2056
C 8.2373 -0.9284 -3.2073
O 9.4252 -1.0729 -3.4441
N 7.8232 -0.5376 -1.9541
H -0.7038 2.2778 -0.6203
H -1.3328 3.3361 -2.7084
H -0.3939 2.5200 -4.8498
H 1.2298 0.6423 -4.8541
H 1.9073 -0.4257 -2.7234
H -0.2800 -1.6981 -1.9493
H -0.9099 -4.0688 -1.9378
H -0.3923 -5.4900 0.0228
H 0.7721 -4.5196 1.9841
H 1.4290 -2.1367 1.9921
H 0.5223 0.2010 2.3830
H -0.8890 0.6803 1.3659
H -1.3041 3.0099 1.5664
H -0.5947 5.3523 1.6849
H 1.8005 5.9294 1.8674
H 3.5098 4.1389 1.9590
H 2.8481 1.7153 1.7703
H 7.8921 1.0131 2.3041
H 8.4268 3.3487 2.9504
H 7.5389 5.2548 1.6411
H 6.1573 4.8407 -0.3645
H 5.6065 2.5521 -1.0304
H 7.4530 -2.4725 0.0067
H 8.0283 -4.1714 1.6734
H 7.3366 -3.8958 4.0263
H 6.0458 -1.8990 4.7117
H 5.4326 -0.1541 3.0447
H 4.4713 -0.5037 -2.3866
H 5.2051 -1.2004 -4.6903
H 7.6091 -1.5009 -5.1931
H 8.5464 -0.3744 -1.2166
