77
 
P 1.0027 -0.0768 -0.0640
C 0.3390 -0.0991 1.7582
C 0.7699 1.0819 2.7128
C 0.1026 2.3889 2.3181
C -1.4317 2.2934 2.1900
C -1.8945 1.0277 1.4645
C -1.1789 -0.2338 1.9414
C 0.4656 1.5053 -1.1853
C 1.0720 2.9484 -1.0702
C 2.5178 2.9317 -1.4219
C 2.6244 2.4702 -2.8639
C 1.8335 1.1172 -3.1421
C 0.4505 1.2108 -2.6884
C 0.4209 -1.7595 -0.5722
C -0.8907 -1.9087 -1.1667
C -1.8830 -0.8327 -1.4982
C -1.3781 -3.1572 -1.5159
C -0.6308 -4.2954 -1.3201
C -1.2079 -5.6226 -1.6812
C 0.6503 -4.1962 -0.7878
C 1.2037 -2.9538 -0.4118
C 2.6091 -3.0006 0.1469
Pd 3.4627 -0.0768 -0.0640
N 5.5627 -0.0768 -0.0640
C 6.3925 0.1317 -1.0719
C 6.0886 0.4274 -2.5338
C 4.7977 0.3909 -2.9875
C 4.4900 0.7088 -4.3401
C 5.4370 1.0959 -5.2357
C 6.7496 1.0998 -4.8321
C 7.0877 0.7545 -3.5036
N 7.7329 0.0709 -0.6575
C 7.7631 0.0195 0.7649
C 6.3214 -0.3686 1.1299
H 0.8080 -0.9963 2.2156
H 1.8751 1.2175 2.7438
H 0.4499 0.8772 3.7615
H 0.5533 2.5462 1.3849
H 0.3769 3.2497 2.9709
H -1.8187 3.1818 1.6324
H -1.8792 2.2906 3.1987
H -1.6744 1.1607 0.4421
H -2.9933 0.9122 1.5164
H -1.5327 -1.1389 1.4190
H -1.4143 -0.3615 3.0249
H -0.5641 1.7891 -1.0357
H 0.9348 3.5434 -0.1775
H 0.5524 3.6225 -1.7998
H 3.0513 2.2672 -0.7111
H 2.9381 3.9611 -1.3393
H 3.7061 2.5375 -3.0386
H 2.2213 3.2399 -3.5507
H 2.1842 0.2073 -2.6281
H 1.6891 0.8861 -4.2138
H -0.0801 0.2817 -2.9671
H -0.0223 2.0336 -3.2785
H -1.5409 0.1171 -1.2653
H -2.8342 -0.9523 -0.9458
H -2.0788 -0.7970 -2.5918
H -2.3719 -3.2368 -1.9484
H -2.2444 -5.5221 -2.0735
H -1.2408 -6.2541 -0.7704
H -0.5761 -6.0953 -2.4579
H 1.2127 -5.1126 -0.6629
H 2.9935 -4.0496 0.1746
H 2.6442 -2.6249 1.1874
H 3.3124 -2.4380 -0.4986
H 4.0853 0.1469 -2.2375
H 3.5383 0.7372 -4.7793
H 5.1151 1.3833 -6.2355
H 7.4828 1.3814 -5.5686
H 8.1307 0.7770 -3.2640
H 8.5534 0.2778 -1.2412
H 7.9910 1.0585 1.0919
H 8.5193 -0.6899 1.1571
H 5.9827 0.1922 2.0248
H 6.2466 -1.4639 1.2977
