78
 
P 0.9997 0.0988 0.0153
C 0.7160 1.1831 1.5392
C 0.1308 2.4823 1.4607
C 0.0453 3.3379 2.5759
C 0.5180 2.9232 3.8127
C 1.0205 1.6311 3.9491
C 1.1136 0.7672 2.8339
C 0.8566 0.7428 -1.8532
C 0.2498 2.0061 -2.1540
C 0.1093 2.5272 -3.4627
C 0.5414 1.8114 -4.5649
C 1.1390 0.5807 -4.3612
C 1.3313 0.0710 -3.0507
C -0.0873 -1.3497 0.5273
C -1.5450 -0.9368 0.5906
C -1.9850 -0.4982 -0.8009
C -1.7652 -1.6340 -1.8326
C -0.4103 -2.3831 -1.7476
C 0.0184 -2.6552 -0.3249
Pd 3.4597 0.0988 0.0153
C 5.6097 0.0988 0.0153
N 6.3713 0.4116 1.0869
C 5.8367 0.7995 2.3951
C 5.0067 2.0798 2.2697
C 4.9370 -0.3195 2.9278
C 7.6560 0.2792 0.6604
C 7.6553 -0.1109 -0.6567
C 8.8403 -0.3067 -1.3794
C 10.0567 -0.1079 -0.7165
C 10.0712 0.2819 0.6377
C 8.8640 0.4839 1.3446
N 6.3863 -0.2489 -1.0883
C 6.0398 -0.6300 -2.5018
C 5.8488 0.5792 -3.4191
C 5.7766 1.8232 -2.7969
C 5.3490 2.9413 -3.4707
C 5.0745 2.8876 -4.8288
C 5.2656 1.6946 -5.5328
C 5.6286 0.5190 -4.8334
H -0.2579 2.8900 0.5613
H -0.3730 4.3382 2.4853
H 0.4861 3.5999 4.6653
H 1.3562 1.3135 4.9285
H 1.5216 -0.2157 2.9970
H -0.1472 2.6346 -1.4043
H -0.3479 3.4972 -3.6367
H 0.4227 2.2130 -5.5735
H 1.4624 0.0277 -5.2410
H 1.8541 -0.8701 -3.0559
H 0.2425 -1.6567 1.5440
H -1.6628 -0.1154 1.3253
H -2.1540 -1.7993 0.9395
H -1.4418 0.4165 -1.0576
H -3.0427 -0.1801 -0.7847
H -1.9075 -1.2272 -2.8586
H -2.5375 -2.3906 -1.6244
H 0.4025 -1.8231 -2.1012
H -0.4095 -3.2901 -2.3907
H 1.0471 -3.0919 -0.3148
H -0.6575 -3.4377 0.0859
H 6.6703 0.9856 3.1079
H 4.1508 1.9170 1.5792
H 5.6330 2.9085 1.8814
H 4.6016 2.3703 3.2630
H 4.0784 -0.4936 2.2026
H 4.5501 -0.0322 3.9311
H 5.5437 -1.2418 3.0659
H 8.8419 -0.6015 -2.4206
H 10.9868 -0.2565 -1.2536
H 11.0243 0.4283 1.1292
H 8.8942 0.7890 2.3796
H 5.0789 -1.1812 -2.5221
H 6.8000 -1.3355 -2.9126
H 5.9823 1.9463 -1.7542
H 5.2086 3.8406 -2.8969
H 4.7150 3.7815 -5.3175
H 5.0810 1.6956 -6.6049
H 5.6978 -0.4041 -5.4065
