46
 
P 0.9438 -0.0086 -0.0823
O 0.3863 0.8683 -1.4469
C 0.7535 2.2273 -1.3742
C 0.1858 2.9366 -2.6034
O 0.5992 -1.5997 0.4444
C -0.7847 -1.8222 0.1868
C -1.1361 -3.2984 0.2347
C 0.0845 0.6894 1.3612
C -1.0916 1.4468 1.2790
C -1.6370 2.0223 2.4348
C -1.0108 1.8529 3.6746
C 0.1644 1.1069 3.7648
C 0.7095 0.5280 2.6153
Pd 3.4038 -0.0086 -0.0823
N 5.5038 -0.0086 -0.0823
C 6.1367 -0.6925 0.8899
C 5.2890 -1.2862 1.9637
C 7.5336 -0.8223 0.8457
C 8.2360 -0.2411 -0.2194
C 7.5490 0.4882 -1.1953
C 6.1565 0.6067 -1.1000
C 5.3569 1.3891 -2.0950
H 1.8588 2.3477 -1.3669
H 0.3062 2.7316 -0.4942
H 0.6123 2.5025 -3.5326
H 0.4224 4.0213 -2.5731
H -0.9205 2.8213 -2.6356
H -1.1157 -1.4455 -0.8137
H -1.3883 -1.3407 0.9834
H -0.6590 -3.8466 -0.6033
H -2.2411 -3.4072 0.1446
H -0.8171 -3.7286 1.2049
H -1.5782 1.6018 0.3276
H -2.5408 2.6114 2.3691
H -1.4302 2.3065 4.5643
H 0.6589 0.9882 4.7226
H 1.6378 -0.0272 2.7028
H 4.1995 -1.0814 1.7334
H 5.5677 -0.8189 2.9331
H 5.4648 -2.3796 2.0224
H 8.0680 -1.3788 1.6046
H 9.3111 -0.3492 -0.2895
H 8.0921 0.9462 -2.0133
H 6.0070 1.8203 -2.8875
H 4.8532 2.2264 -1.5669
H 4.5740 0.7488 -2.5511
