66
 
P 0.9295 -0.0629 0.0328
O 0.3764 1.5551 -0.0357
C 0.8614 2.3801 0.9759
C 0.4000 3.7991 0.6249
O 0.5563 -1.3254 -1.0583
C -0.8373 -1.2427 -1.3227
C -1.2412 -2.2146 -2.4165
C 0.0095 -0.6936 1.4712
C -1.1927 -0.1540 1.9300
C -1.8527 -0.7404 3.0194
C -1.3145 -1.8612 3.6634
C -0.1057 -2.3996 3.2266
C 0.5535 -1.8219 2.1358
Pd 3.3895 -0.0629 0.0328
P 5.8495 -0.0629 0.0328
C 6.5672 -0.5905 -1.5465
C 6.2883 0.2292 -2.6700
C 6.6144 -0.1901 -3.9643
C 7.2073 -1.4363 -4.1549
C 7.5066 -2.2409 -3.0518
C 7.2022 -1.8174 -1.7534
C 6.3700 1.6696 0.2240
C 5.4418 2.7193 0.2667
C 5.8767 4.0329 0.5128
C 7.2318 4.2998 0.7400
C 8.1643 3.2652 0.6729
C 7.7418 1.9629 0.3870
C 6.3085 -1.3428 1.2825
C 7.0924 -1.0487 2.4599
C 7.5308 0.3183 2.9114
C 7.5113 -2.0911 3.3018
C 7.1554 -3.4039 3.0360
C 6.3603 -3.6958 1.9306
C 5.9344 -2.6777 1.0678
H 1.9722 2.3591 1.0391
H 0.3870 2.1017 1.9362
H 0.8873 4.1545 -0.3108
H 0.6370 4.5040 1.4457
H -0.7017 3.8149 0.4547
H -1.1466 -0.2209 -1.6510
H -1.4209 -1.5468 -0.4284
H -0.7377 -1.9564 -3.3696
H -2.3432 -2.1603 -2.5660
H -0.9776 -3.2496 -2.1157
H -1.6254 0.6987 1.4330
H -2.7905 -0.3299 3.3602
H -1.8346 -2.3147 4.4989
H 0.3125 -3.2674 3.7297
H 1.4926 -2.2649 1.8166
H 5.7817 1.1840 -2.5603
H 6.3778 0.4321 -4.8224
H 7.4238 -1.7850 -5.1570
H 7.9494 -3.2137 -3.2022
H 7.4139 -2.4822 -0.9410
H 4.3881 2.5210 0.1231
H 5.1639 4.8458 0.5515
H 7.5614 5.3068 0.9703
H 9.2127 3.4697 0.8604
H 8.4804 1.1713 0.3587
H 6.8879 1.1072 2.5219
H 8.6148 0.4675 2.7073
H 7.3692 0.4438 4.0025
H 8.1175 -1.8812 4.1797
H 7.4947 -4.1918 3.6974
H 6.0877 -4.7220 1.7337
H 5.3388 -2.9378 0.2055
