30
 
P 1.0783 0.0104 -0.0613
C 0.1609 -0.6230 -1.4930
C 0.5851 -1.1434 1.2475
C 0.5844 1.7549 -0.0349
Pd 3.5383 0.0104 -0.0613
P 5.9983 0.0104 -0.0613
O 7.2254 -0.3595 -1.1726
C 6.6852 0.0587 -2.4291
O 6.3997 1.6712 -0.1145
C 6.0783 2.2824 1.0957
O 6.4258 -1.1454 1.1146
C 5.8935 -2.3856 0.7347
H -0.9344 -0.5795 -1.3947
H 0.5020 -1.6702 -1.6649
H 0.5021 -0.0459 -2.3835
H -0.5265 -1.1508 1.3006
H 0.9655 -0.7592 2.2173
H 0.9612 -2.1660 1.0618
H -0.5271 1.7993 -0.0046
H 0.9608 2.3053 -0.9165
H 0.9646 2.2144 0.9019
H 7.4014 -0.1410 -3.2477
H 6.5146 1.1607 -2.4582
H 5.7239 -0.4502 -2.7049
H 6.5688 3.2809 1.1002
H 6.4773 1.7377 1.9797
H 4.9844 2.4423 1.1329
H 6.3432 -3.1607 1.3912
H 6.1761 -2.6690 -0.3041
H 4.7929 -2.3993 0.8918
