38
 
P 0.9650 -0.0927 0.0134
O 0.5035 -1.6286 -0.5905
C 0.9172 -1.9071 -1.8918
C 0.4691 -3.3412 -2.1829
O 0.5714 0.5743 1.5336
C -0.8194 0.3999 1.7103
C -1.2361 0.8398 3.1058
C 0.2145 0.9876 -1.2333
C -1.0440 0.8208 -1.8212
C -1.4147 1.6422 -2.9013
C -0.5495 2.6391 -3.3740
C 0.6763 2.8489 -2.7481
C 1.0555 2.0269 -1.6877
Pd 3.4250 -0.0927 0.0134
C 5.5750 -0.0927 0.0134
N 6.3434 -0.0560 1.1182
H 6.0211 -0.0341 2.1105
C 7.6122 -0.0816 0.6686
Cl 9.0347 -0.0818 1.6933
C 7.5897 -0.1135 -0.7098
Cl 8.9720 -0.1240 -1.7887
N 6.3083 -0.1322 -1.1142
H 2.0205 -1.8340 -1.9879
H 0.3933 -1.2547 -2.6166
H 0.9869 -4.0581 -1.5081
H 0.6839 -3.6116 -3.2352
H -0.6271 -3.4467 -2.0086
H -1.1151 -0.6703 1.6011
H -1.3827 1.0354 0.9927
H -0.7212 0.2292 3.8766
H -2.3342 0.7054 3.2204
H -0.9935 1.9123 3.2578
H -1.7083 0.0405 -1.4835
H -2.3641 1.4931 -3.3938
H -0.8232 3.2487 -4.2268
H 1.3447 3.6290 -3.0997
H 2.0274 2.1936 -1.2328
H 5.9507 -0.1539 -2.0947
