52
 
P 1.0166 0.0781 0.0602
C 0.6441 -1.3004 -1.0551
C -0.6800 -1.7693 -1.1212
C -1.0172 -2.8477 -1.9433
C -0.0360 -3.4682 -2.7159
C 1.2866 -3.0146 -2.6582
C 1.6321 -1.9357 -1.8255
C 0.7474 -0.1664 1.8651
C 1.8174 -0.0199 2.7687
C 1.6653 -0.3441 4.1290
C 0.4477 -0.8276 4.6090
C -0.6334 -0.9574 3.7374
C -0.4931 -0.6223 2.3760
C 0.1180 1.4543 -0.7852
C 0.4138 2.8063 -0.0832
C 1.9175 3.2032 -0.1593
C 2.3783 3.3111 -1.6159
C 2.1563 1.9631 -2.3145
C 0.6399 1.6017 -2.2538
Pd 3.4766 0.0781 0.0602
N 5.5766 0.0781 0.0602
C 6.2181 1.2764 0.0485
C 7.6114 1.3254 -0.0393
F 8.2551 2.5184 -0.0578
C 8.3316 0.1318 -0.1241
C 7.6529 -1.0894 -0.1201
C 6.2577 -1.0956 -0.0312
H -1.4563 -1.3082 -0.5272
H -2.0401 -3.2036 -1.9791
H -0.3030 -4.3021 -3.3552
H 2.0403 -3.5068 -3.2596
H 2.6604 -1.6016 -1.7875
H 2.7804 0.3243 2.4230
H 2.4982 -0.2446 4.8146
H 0.3451 -1.1080 5.6544
H -1.5728 -1.3412 4.1232
H -1.3476 -0.7664 1.7322
H -0.9733 1.2538 -0.7791
H 0.0878 2.7669 0.9752
H -0.1880 3.6046 -0.5824
H 2.5766 2.4375 0.3520
H 2.0507 4.1990 0.3235
H 3.4539 3.5933 -1.6568
H 1.8116 4.1192 -2.1408
H 2.8193 1.1597 -1.8334
H 2.4541 2.0882 -3.3817
H 0.4584 0.6817 -2.8430
H 0.0652 2.4151 -2.7604
H 5.6403 2.1904 0.0949
H 9.4110 0.1525 -0.2026
H 8.2008 -2.0194 -0.1974
H 5.7162 -2.0319 -0.0475
