16
 
P 0.9835 -0.0952 -0.0258
C -0.0199 -0.2722 1.4776
C 0.5201 1.5810 -0.5416
C 0.5230 -1.6060 -0.9175
Pd 3.4435 -0.0952 -0.0258
C 5.5935 -0.0952 -0.0258
O 6.8115 -0.0952 -0.0258
H -1.1071 -0.2514 1.3010
H 0.2805 0.5411 2.1773
H 0.2804 -1.2256 1.9697
H -0.5897 1.6365 -0.5961
H 0.9226 1.7680 -1.5585
H 0.8976 2.3407 0.1687
H -0.5868 -1.6484 -0.9845
H 0.9008 -2.5096 -0.4030
H 0.9271 -1.5509 -1.9494
