70
 
P 1.0562 -0.0083 0.0823
C 0.0361 1.4831 0.7311
C 0.2876 1.9644 2.1853
C 1.6911 2.5715 2.4041
C 1.9826 3.7293 1.4233
C 1.7125 3.3123 -0.0251
C 0.2672 2.7527 -0.1247
C 0.6992 -0.0850 -1.8187
C 1.2256 1.0429 -2.7597
C 2.7472 1.0739 -2.7453
C 3.2291 -0.1669 -3.4467
C 2.7729 -1.3687 -2.6216
C 1.2318 -1.3926 -2.4747
C 0.5399 -1.3889 1.2056
C -0.8422 -1.7846 1.2335
C -1.9545 -1.1758 0.4255
C -1.2665 -2.8704 2.0006
C -0.3733 -3.6373 2.7225
C -0.8792 -4.8281 3.4880
C 0.9850 -3.3113 2.6911
C 1.4678 -2.2018 1.9427
C 2.9703 -1.9901 1.9099
Pd 3.5162 -0.0083 0.0823
N 5.6162 -0.0083 0.0823
C 6.2881 -0.0363 -1.0943
N 7.6368 -0.1608 -1.1108
C 8.3519 -0.2358 0.0429
O 9.6958 -0.4005 0.0086
C 10.4040 -0.5816 -1.1635
C 7.6827 -0.1629 1.2689
C 6.2885 -0.0557 1.2620
H -1.0353 1.2680 0.6627
H 0.0787 1.1634 2.9175
H -0.4446 2.7871 2.3857
H 2.4438 1.7665 2.2960
H 1.7540 2.9815 3.4383
H 3.0341 4.0819 1.5403
H 1.3185 4.5903 1.6566
H 2.4737 2.5750 -0.3348
H 1.8333 4.2016 -0.6881
H -0.0876 2.5400 -1.1104
H -0.4270 3.5656 0.1650
H -0.3990 -0.1230 -1.9488
H 0.8706 2.0618 -2.6822
H 0.8606 0.8336 -3.7963
H 3.1628 1.0551 -1.7158
H 3.0910 1.9773 -3.2887
H 4.3240 -0.1325 -3.5356
H 2.8275 -0.1925 -4.4850
H 3.2506 -1.2540 -1.6259
H 3.1197 -2.2906 -3.1323
H 0.8715 -2.2962 -1.9409
H 0.8073 -1.4691 -3.5085
H -1.6387 -0.4322 -0.2964
H -2.7068 -0.7303 1.1078
H -2.4409 -1.9654 -0.1881
H -2.3169 -3.1483 1.9983
H -1.9853 -4.9319 3.4019
H -0.6273 -4.7181 4.5611
H -0.4231 -5.7560 3.0834
H 1.6647 -3.9585 3.2357
H 3.4746 -2.7392 2.5786
H 3.2720 -0.9363 2.1627
H 3.3557 -2.2136 0.8970
H 5.7550 -0.0167 -2.0173
H 11.4823 -0.6962 -0.9327
H 10.2695 0.2954 -1.8320
H 10.0549 -1.4998 -1.6865
H 8.2245 -0.2154 2.2047
H 5.7381 -0.0244 2.1931
