34
 
P 1.0718 -0.0161 -0.0677
C 0.1219 -1.5609 0.0078
C 0.5913 0.7820 1.4880
C 0.5903 0.6264 -1.6936
Pd 3.5318 -0.0161 -0.0677
N 5.6318 -0.0161 -0.0677
C 5.7746 1.3879 -0.4656
C 6.2336 -0.8312 -1.1293
C 6.2017 -0.1308 1.2622
C 7.4794 -0.7052 1.5102
C 8.0010 -0.7778 2.8080
C 7.2844 -0.2586 3.8830
C 6.0467 0.3517 3.6617
C 5.5018 0.4120 2.3635
H -0.9709 -1.4271 0.0012
H 0.4478 -2.1051 0.9241
H 0.4480 -2.1918 -0.8511
H -0.5198 0.8347 1.5220
H 0.9802 1.8217 1.4881
H 0.9687 0.2279 2.3672
H -0.5206 0.6755 -1.7327
H 0.9680 -0.0108 -2.5145
H 0.9787 1.6614 -1.7953
H 5.3685 1.5512 -1.4898
H 6.8404 1.7153 -0.4572
H 5.1915 2.0543 0.2061
H 5.4771 -1.0181 -1.9192
H 6.6369 -1.7967 -0.7703
H 7.0791 -0.2984 -1.6369
H 8.0961 -1.0979 0.7160
H 8.9698 -1.2333 2.9824
H 7.6974 -0.3223 4.8853
H 5.5169 0.7757 4.5061
H 4.5361 0.8921 2.1951
