67
 
P 1.0894 -0.0436 -0.0106
C 0.5636 -0.1693 -1.9302
C 1.1028 0.9471 -2.8442
C 2.6318 0.9419 -2.8813
C 3.1990 -0.4307 -3.3121
C 2.5826 -1.5856 -2.5031
C 1.0487 -1.4497 -2.6798
C 0.3546 -1.4048 1.1084
C -1.1925 -1.3033 1.1068
C -1.8097 -1.8487 -0.1885
C -1.3724 -3.2800 -0.4858
C 0.1547 -3.5409 -0.2695
C 0.7070 -2.9218 0.9952
C 0.5906 1.6809 0.5180
C -0.5669 2.4001 0.0169
C -1.6387 1.8938 -0.9086
C -0.8577 3.6901 0.4716
C -0.1116 4.2976 1.4594
C -0.4925 5.6720 1.9266
C 0.9420 3.5974 2.0404
C 1.2941 2.3012 1.6031
C 2.3885 1.5987 2.3736
Pd 3.5494 -0.0436 -0.0106
N 5.6494 -0.0436 -0.0106
C 6.2932 -0.9054 -0.8428
C 7.6851 -1.0147 -0.8029
C 8.4043 -0.2316 0.1020
F 9.7539 -0.3414 0.1726
C 7.7267 0.6544 0.9434
C 6.3321 0.7337 0.8730
H -0.4906 -0.0859 -2.1663
H 0.6879 1.9294 -2.5625
H 0.7285 0.7638 -3.8895
H 2.9850 1.1976 -1.8694
H 2.9737 1.7189 -3.5962
H 4.3038 -0.4305 -3.2297
H 2.9467 -0.6060 -4.3843
H 2.9152 -1.5527 -1.4286
H 2.9485 -2.5491 -2.9196
H 0.3776 -2.2951 -2.5400
H 0.8410 -1.4241 -3.7745
H 0.7032 -1.1225 2.1208
H -1.5010 -0.2489 1.2619
H -1.6094 -1.9043 1.9424
H -1.5083 -1.2740 -1.0233
H -2.9172 -1.7438 -0.1827
H -1.6760 -3.5195 -1.5347
H -1.9517 -3.9340 0.1913
H 0.8611 -3.1027 -0.9228
H 0.3556 -4.6229 -0.3941
H 1.8064 -3.0846 1.0578
H 0.2455 -3.4742 1.8439
H -1.7346 0.8190 -0.8720
H -1.5856 2.3655 -1.9108
H -2.6425 2.1559 -0.4958
H -1.7194 4.2213 0.0755
H -1.3625 6.0699 1.3567
H 0.3572 6.3687 1.7802
H -0.7777 5.6334 2.9975
H 1.4807 4.0680 2.8546
H 2.7487 2.2142 3.2287
H 3.2570 1.3608 1.7365
H 1.9862 0.6673 2.8227
H 5.7207 -1.5241 -1.5203
H 8.1974 -1.7109 -1.4545
H 8.2744 1.2603 1.6535
H 5.7937 1.3966 1.5365
