78
 
P 0.9477 -0.0730 0.0441
C 0.4924 -1.7671 0.4283
C -0.8667 -2.0852 0.6183
C -1.2525 -3.3865 0.9448
C -0.2852 -4.3841 1.0675
C 1.0712 -4.0729 0.8836
C 1.4677 -2.7570 0.5767
C 0.5290 1.3261 1.1693
C 1.3722 2.4429 1.3116
C 1.1133 3.4266 2.2840
C 0.0060 3.3152 3.1263
C -0.8599 2.2331 2.9835
C -0.6026 1.2453 2.0174
C 0.2261 0.1511 -1.6248
C 0.6077 1.5493 -2.1684
C 2.1513 1.7223 -2.3175
C 2.6930 0.6957 -3.3168
C 2.3813 -0.7136 -2.8084
C 0.8524 -0.9066 -2.5977
Pd 3.4077 -0.0730 0.0441
P 5.8677 -0.0730 0.0441
C 6.5464 -1.3863 1.1287
C 7.4157 -2.4085 0.6853
C 7.6561 -3.5366 1.4758
C 7.0584 -3.6586 2.7287
C 6.2347 -2.6386 3.2059
C 5.9767 -1.5113 2.4120
C 6.3386 -0.7117 -1.5858
C 7.0793 0.1138 -2.4508
C 7.5728 -0.3878 -3.6605
C 7.3501 -1.7227 -4.0051
C 6.6026 -2.5460 -3.1588
C 6.0754 -2.0382 -1.9661
C 6.3963 1.5370 0.7070
C 7.7712 1.9164 0.8196
C 8.9393 1.0390 0.4483
C 8.0981 3.1998 1.2915
C 7.1028 4.1038 1.6484
C 5.7621 3.7446 1.5248
C 5.4131 2.4733 1.0520
H -1.6334 -1.3264 0.5272
H -2.3006 -3.6205 1.1017
H -0.5914 -5.3954 1.3108
H 1.8083 -4.8568 0.9868
H 2.5208 -2.4896 0.4512
H 2.2415 2.5491 0.6925
H 1.7809 4.2713 2.4035
H -0.1788 4.0627 3.8929
H -1.7197 2.1537 3.6412
H -1.2866 0.4136 1.9638
H -0.8770 0.0390 -1.5738
H 0.1982 2.3388 -1.5065
H 0.1263 1.6846 -3.1674
H 2.7223 1.5840 -1.3344
H 2.3501 2.7409 -2.7217
H 3.7922 0.8338 -3.4246
H 2.2367 0.8392 -4.3239
H 2.9246 -0.8713 -1.8627
H 2.7825 -1.4629 -3.5230
H 0.6747 -1.9369 -2.2265
H 0.3639 -0.8270 -3.5923
H 7.8759 -2.3901 -0.2871
H 8.2808 -4.3361 1.0975
H 7.2240 -4.5507 3.3217
H 5.7638 -2.7450 4.1758
H 5.2791 -0.7698 2.7815
H 7.2954 1.1411 -2.1836
H 8.1507 0.2492 -4.3194
H 7.7636 -2.1214 -4.9232
H 6.4510 -3.5859 -3.4159
H 5.5294 -2.6990 -1.3065
H 8.6528 0.0362 0.0940
H 9.5987 0.9200 1.3345
H 9.5302 1.5260 -0.3590
H 9.1360 3.5043 1.3796
H 7.3767 5.0866 2.0135
H 4.9945 4.4594 1.7911
H 4.3743 2.2178 0.9424
