33
 
P 1.0570 -0.0230 -0.0789
C 0.1123 -0.1697 -1.6214
C 0.5732 -1.5391 0.7905
C 0.5755 1.6299 0.4902
Pd 3.5170 -0.0230 -0.0789
N 5.6170 -0.0230 -0.0789
C 6.3125 1.1589 -0.1650
N 5.6122 2.4187 -0.1767
C 6.1578 3.6121 -0.8268
C 4.3230 2.5655 0.4863
C 7.7202 1.1017 -0.2676
C 8.3675 -0.1336 -0.2798
C 7.6265 -1.3083 -0.1968
C 6.2391 -1.2313 -0.0983
H -0.9809 -0.1577 -1.4923
H 0.4408 -1.1099 -2.1216
H 0.4406 0.6592 -2.2902
H -0.5378 -1.5694 0.8435
H 0.9602 -1.4905 1.8299
H 0.9506 -2.4438 0.2791
H -0.5355 1.6703 0.5375
H 0.9521 2.4222 -0.1825
H 0.9644 1.7775 1.5194
H 7.1385 3.4514 -1.3150
H 6.2689 4.4431 -0.0965
H 5.4674 3.9467 -1.6305
H 4.0441 1.7032 1.1086
H 3.5383 2.8429 -0.2394
H 4.4238 3.4173 1.2065
H 8.3323 1.9894 -0.3254
H 9.4461 -0.1793 -0.3594
H 8.1222 -2.2700 -0.2202
H 5.6479 -2.1363 -0.0573
