86
 
P 1.0517 -0.0850 0.0096
C 0.5638 -1.4716 -1.0653
C -0.3294 -1.3680 -2.1539
C -0.7629 -2.5099 -2.8290
C -0.3280 -3.7715 -2.4260
C 0.5561 -3.8923 -1.3537
C 1.0026 -2.7505 -0.6817
C 0.6471 -0.1665 1.7637
C -0.0818 -1.2609 2.2591
C -0.4103 -1.3385 3.6157
C -0.0101 -0.3264 4.4900
C 0.7168 0.7660 4.0062
C 1.0420 0.8497 2.6454
C 0.1284 1.2855 -0.7458
C 0.6163 1.5996 -2.1462
C -0.2685 2.2879 -2.9949
C 0.0773 2.5613 -4.3168
C 1.3212 2.1666 -4.8068
C 2.2282 1.5000 -3.9720
C 1.8941 1.2041 -2.6375
Pd 3.5117 -0.0850 0.0096
P 5.9717 -0.0850 0.0096
N 6.7939 -1.6294 -0.1828
C 6.1844 -2.5994 0.7910
C 4.6375 -2.7440 0.6058
C 6.7954 -3.9995 0.6872
C 8.2503 -1.5035 -0.2048
C 8.6743 -0.0651 0.0517
C 10.2093 -0.0107 0.0492
C 8.1223 0.8597 -1.1153
N 6.6358 0.8590 -1.3382
C 6.1255 2.2908 -1.2507
C 6.6551 3.2550 -2.3232
C 4.5983 2.4215 -1.2787
N 6.5795 0.2186 1.6510
C 6.0092 1.5209 2.1765
C 4.4722 1.5622 2.3111
C 6.5587 1.9763 3.5337
C 8.0808 0.3494 1.4724
H -0.7439 -0.4355 -2.4841
H -1.4610 -2.4143 -3.6504
H -0.6894 -4.6548 -2.9355
H 0.8773 -4.8732 -1.0282
H 1.6585 -2.8714 0.1714
H -0.4057 -2.0547 1.6007
H -0.9760 -2.1835 3.9889
H -0.2655 -0.3895 5.5408
H 1.0255 1.5476 4.6881
H 1.6001 1.7022 2.2844
H 0.3742 2.1891 -0.1422
H -0.9661 1.1321 -0.6832
H -1.2427 2.5969 -2.6346
H -0.6267 3.0738 -4.9624
H 1.5786 2.3800 -5.8374
H 3.1916 1.2100 -4.3696
H 2.6458 0.6683 -1.9992
H 6.3499 -2.2561 1.8340
H 4.3770 -3.0103 -0.4448
H 4.0790 -1.8264 0.9240
H 4.2321 -3.5427 1.2637
H 6.6534 -4.4133 -0.3305
H 6.3086 -4.6632 1.4344
H 7.8678 -4.0048 0.9485
H 8.6089 -1.8432 -1.2029
H 8.7255 -2.1354 0.5643
H 10.5978 -0.3402 -0.9413
H 10.6206 -0.6950 0.8216
H 10.5684 1.0180 0.2485
H 8.5913 0.5730 -2.0806
H 8.5093 1.8734 -0.8743
H 6.4887 2.7678 -0.3462
H 6.3146 2.9639 -3.3341
H 7.7548 3.3567 -2.2936
H 6.2565 4.2773 -2.1011
H 4.2482 2.1154 -2.2695
H 4.2753 3.4696 -1.0837
H 4.0944 1.8361 -0.5187
H 6.3057 2.3324 1.5265
H 4.1100 0.9601 3.1627
H 3.9292 1.2072 1.4559
H 4.1424 2.6213 2.4287
H 6.2302 1.2905 4.3369
H 6.1539 2.9959 3.7481
H 7.6585 2.0781 3.5443
H 8.5534 -0.2844 2.2533
H 8.4384 1.3867 1.6379
