34
 
P 1.0648 -0.0495 0.0579
C 0.3578 -1.5794 -0.7875
C -1.1504 -1.8733 -0.8636
C 0.9267 -1.6772 -2.2125
C 0.5689 -0.1225 1.8557
C -0.9589 -0.0927 2.1252
C 1.1723 -1.3171 2.5692
C 0.5897 1.4508 -0.9704
C -0.9348 1.6928 -1.0318
C 1.1823 2.7559 -0.3992
Pd 3.5248 -0.0495 0.0579
C 5.6748 -0.0495 0.0579
O 6.8929 -0.0495 0.0579
H 0.8020 -2.4300 -0.2275
H -1.7210 -1.1595 -1.4668
H -1.6193 -2.0241 0.1084
H -1.2965 -2.8504 -1.3726
H 0.4740 -0.9113 -2.8763
H 0.7026 -2.6790 -2.6448
H 2.0315 -1.5579 -2.2139
H 0.9717 0.8024 2.3200
H -1.4757 -1.0110 1.8319
H -1.4724 0.7667 1.6684
H -1.1578 -0.0169 3.2140
H 0.7973 -2.2626 2.1277
H 0.8762 -1.2899 3.6421
H 2.2770 -1.2642 2.5015
H 0.9667 1.3092 -2.0013
H -1.3605 1.9625 -0.0471
H -1.4867 0.8494 -1.4402
H -1.1681 2.5474 -1.7003
H 0.8118 2.9570 0.6327
H 0.8595 3.6222 -1.0251
H 2.2877 2.7426 -0.3938
