36
 
C 0.9010 -0.6430 -0.0020
N -0.3406 -1.1023 0.0124
C -0.6727 -2.5204 0.0264
C 0.6236 -3.3983 0.0205
C -1.1314 -0.0057 0.0120
C -0.3040 1.1160 -0.0018
N 0.9738 0.6834 -0.0093
C 2.2261 1.4393 -0.0213
C 3.4644 0.4994 -0.0296
Pd 2.6584 -1.8814 -0.0135
N 4.3750 -3.0911 -0.0247
C 5.5965 -2.5053 -0.1028
N 6.7096 -3.2713 -0.2269
C 6.6297 -4.6309 -0.2545
O 7.7400 -5.3867 -0.4262
C 8.9866 -4.8558 -0.6874
C 5.3820 -5.2488 -0.1292
C 4.2479 -4.4427 -0.0200
H -1.2986 -2.7473 -0.8649
H -1.2795 -2.7338 0.9344
H 1.2507 -3.2209 -0.8634
H 0.2974 -4.4588 0.0293
H 1.2658 -3.2097 0.8915
H -2.2138 -0.0106 0.0215
H -0.6104 2.1546 -0.0057
H 2.2612 2.0877 0.8805
H 2.2485 2.0868 -0.9240
H 3.4893 -0.1527 0.8581
H 4.3824 1.1191 -0.0291
H 3.4807 -0.1475 -0.9222
H 5.6801 -1.4282 -0.1158
H 9.7238 -5.6777 -0.7921
H 9.3018 -4.1905 0.1438
H 8.9650 -4.2781 -1.6381
H 5.2881 -6.3275 -0.1457
H 3.2646 -4.8891 0.0444
