89
 
P 1.2750 0.0000 0.0000
N 0.4253 1.5409 -0.1898
C 0.9757 2.5178 0.8243
C 2.5302 2.7354 0.6898
C 0.2603 3.8930 0.7918
C -1.0246 1.3802 -0.2372
C -1.4305 -0.0630 0.0141
C -2.9653 -0.1157 0.0083
C -0.8429 -0.9760 -1.1443
N 0.6523 -0.9426 -1.3584
C 1.2293 -2.3421 -1.2740
C 0.6702 -3.3619 -2.2644
C 2.7736 -2.4413 -1.3626
N 0.6290 -0.4215 1.6085
C 1.1795 -1.7316 2.1248
C 2.7101 -1.7537 2.2222
C 0.6161 -2.1991 3.4658
C -0.8659 -0.4965 1.4324
Pd 3.7350 0.0003 -0.0005
C 5.8850 0.0006 -0.0009
N 6.6553 0.2533 -1.0871
C 6.1461 0.5705 -2.4203
C 5.2752 1.8203 -2.3595
C 4.6781 2.1800 -3.7195
C 3.8226 3.4360 -3.5847
C 7.9359 0.1201 -0.6595
C 7.9275 -0.2627 0.6611
C 9.1171 -0.4233 1.3872
C 10.3360 -0.2037 0.7206
C 10.3499 0.1439 -0.6454
C 9.1426 0.3097 -1.3550
N 6.6481 -0.4166 1.0792
C 6.2207 -0.8500 2.4465
C 6.5035 -2.3030 2.9839
C 6.9553 -2.3780 4.3217
C 7.3254 -3.5783 4.9317
C 7.2078 -4.7795 4.2468
C 6.6633 -4.7789 2.9561
C 6.3112 -3.5535 2.3162
H 0.8249 2.1208 1.8491
H 2.8354 3.1752 -0.2876
H 3.1205 1.8017 0.8779
H 2.8881 3.4419 1.4716
H 0.3197 4.3673 -0.2082
H 0.6951 4.5738 1.5548
H -0.8065 3.8304 1.0800
H -1.3674 1.7140 -1.2417
H -1.5359 1.9966 0.5183
H -3.3506 0.2288 -0.9768
H -3.3743 0.5634 0.7900
H -3.3268 -1.1428 0.2048
H -1.3132 -0.6895 -2.1085
H -1.2112 -1.9903 -0.8917
H 0.9150 -2.7947 -0.3594
H 0.9769 -3.1087 -3.2923
H -0.4268 -3.4746 -2.1949
H 1.0840 -4.3646 -1.9890
H 3.1514 -2.2160 -2.3727
H 3.0922 -3.4604 -1.0425
H 3.3217 -1.8297 -0.6916
H 0.8580 -2.5562 1.5142
H 3.0764 -1.0266 2.9663
H 3.1688 -1.5036 1.2865
H 3.0883 -2.7770 2.4394
H 0.8947 -1.5090 4.2794
H 1.0329 -3.2153 3.6761
H -0.4812 -2.3389 3.4265
H -1.3173 0.1468 2.2198
H -1.2513 -1.5232 1.5878
H 5.5338 -0.2893 -2.7750
H 6.9815 0.7172 -3.1365
H 5.8987 2.6635 -1.9937
H 4.4416 1.6427 -1.6467
H 4.0442 1.3451 -4.0938
H 5.4940 2.3660 -4.4513
H 2.9836 3.2524 -2.8792
H 3.4042 3.7208 -4.5712
H 4.4399 4.2764 -3.1998
H 9.1184 -0.6877 2.4361
H 11.2727 -0.3051 1.2579
H 11.3011 0.2926 -1.1446
H 9.1746 0.5885 -2.3990
H 5.2149 -0.4924 2.7140
H 6.8222 -0.2011 3.1153
H 7.0305 -1.4809 4.9134
H 7.7108 -3.5638 5.9446
H 7.5243 -5.7010 4.7362
H 6.5323 -5.7403 2.4629
H 5.9074 -3.6095 1.3146
