39
 
C 1.0240 -0.6530 -0.0550
N 1.0576 0.6177 -0.0895
C 2.2756 1.3963 -0.2071
C 3.5427 0.5161 -0.3416
C -0.2734 1.1666 0.0780
C -1.1899 -0.0641 -0.0678
N -0.2729 -1.1568 0.1143
C -0.6438 -2.5312 0.3775
C 0.5817 -3.4469 0.5105
Pd 2.7802 -1.8697 -0.2955
C 4.5364 -3.0865 -0.5360
N 5.5771 -3.2742 0.3259
C 5.8187 -2.7415 1.6609
C 6.4251 -4.1240 -0.2960
Cl 7.9433 -4.7235 0.3617
C 5.9099 -4.4470 -1.5229
Cl 6.6616 -5.5152 -2.7030
N 4.7340 -3.8051 -1.6701
C 3.8585 -3.8650 -2.8357
H 2.3711 2.0401 0.6947
H 2.1896 2.0576 -1.0962
H 3.6781 -0.1378 0.5361
H 4.4255 1.1786 -0.4237
H 3.4958 -0.1217 -1.2390
H -0.5407 1.9457 -0.6673
H -0.3380 1.5785 1.1097
H -1.5637 -0.1400 -1.1154
H -2.0412 -0.0430 0.6439
H -1.3088 -2.9064 -0.4280
H -1.2141 -2.5514 1.3349
H 1.1185 -3.5201 -0.4503
H 0.2249 -4.4612 0.7949
H 1.2553 -3.0817 1.3133
H 5.0019 -2.0741 1.9909
H 6.7845 -2.1890 1.6642
H 5.9172 -3.5902 2.3760
H 4.2879 -4.5278 -3.6183
H 3.7433 -2.8519 -3.2724
H 2.8691 -4.2704 -2.5438
