59
 
C 0.9010 -0.6430 -0.0020
N -0.3818 -1.1827 0.0491
C -0.8986 -2.5989 0.0616
C -0.0322 -3.7342 -0.0017
C 1.3665 -3.6665 -0.1829
C -0.4488 -5.0462 0.0422
C -1.7666 -5.3563 0.0847
C -2.1321 -6.8007 0.0776
C -2.7009 -4.3256 0.0923
C -2.3056 -2.9616 0.0859
C -3.4478 -1.9898 0.0651
C -1.1554 -0.0819 0.0242
C -0.4185 1.0406 -0.0403
N 0.9007 0.7713 -0.0323
C 2.0142 1.8187 0.0035
C 1.8990 3.2626 0.0809
C 0.6681 4.1017 0.1814
C 3.0737 4.0826 0.0782
C 4.3584 3.5446 0.0183
C 5.6187 4.3306 -0.0046
C 4.4937 2.2096 -0.0280
C 3.3730 1.4275 -0.0319
C 3.6666 0.1341 -0.1232
Pd 2.6584 -1.8814 -0.0135
N 4.3750 -3.0911 -0.0247
C 4.4690 -4.2390 0.7464
F 3.5284 -4.5945 1.6441
C 5.6252 -5.0314 0.7558
C 6.6924 -4.7097 -0.0603
F 7.8042 -5.4904 -0.0741
C 6.6070 -3.5822 -0.8612
C 5.4594 -2.7680 -0.8158
F 5.4123 -1.7388 -1.6915
H 1.4092 -2.9185 -0.9860
H 1.8158 -4.4543 -0.8164
H 1.7233 -3.8466 0.8471
H 0.2882 -5.8487 0.0119
H -1.2235 -7.4499 0.0640
H -2.7075 -7.0165 -0.8424
H -2.7020 -7.0342 0.9941
H -3.7474 -4.5959 0.0947
H -4.4429 -2.4742 0.0510
H -3.3980 -1.4070 -0.8815
H -3.4255 -1.3689 0.9847
H -2.2068 0.0298 0.0356
H -0.9559 1.9364 -0.0850
H -0.2961 3.6647 0.2678
H 0.6281 4.7558 -0.7117
H 0.7404 4.6919 1.1145
H 2.9900 5.1564 0.1253
H 5.4054 5.4096 0.0373
H 6.1689 4.0834 -0.9419
H 6.2501 4.0235 0.8602
H 5.4912 1.7595 -0.0718
H 4.6559 -0.2645 -0.2572
H 3.1353 -0.0359 -1.1250
H 3.3228 -0.2708 0.8516
H 5.6972 -5.8949 1.4080
H 7.4305 -3.3496 -1.5254
