81
 
P 1.0348 0.0477 0.0807
C 0.3291 -1.2720 1.2195
C -1.1820 -1.3790 1.4330
C 0.8860 -2.6660 0.8644
C 0.5073 1.6649 0.8268
C 1.0090 1.9540 2.2438
C 0.9125 2.8192 -0.0995
C 0.5396 -0.2895 -1.6994
C 1.0189 -1.6137 -2.2902
C -0.9813 -0.1587 -1.9511
Pd 3.4948 0.0477 0.0807
P 5.9548 0.0477 0.0807
C 6.7562 -0.0040 1.8782
C 6.2924 1.0892 2.9108
C 4.7936 0.9707 3.2509
C 4.4165 -0.4432 3.7547
C 4.9897 -1.5499 2.8631
C 6.4995 -1.3297 2.6384
C 6.2766 -1.2728 -1.3390
C 7.7632 -1.6583 -1.6719
C 8.3801 -2.4738 -0.5168
C 7.5560 -3.7275 -0.1356
C 6.0335 -3.4796 -0.0880
C 5.5507 -2.6470 -1.2642
C 6.3983 1.7445 -0.3550
C 7.7541 2.1642 -0.5137
C 8.9549 1.2813 -0.3031
C 8.0258 3.4843 -0.8947
C 6.9901 4.3859 -1.1202
C 5.6643 3.9740 -0.9863
C 5.3687 2.6596 -0.6123
H 0.7745 -1.0391 2.2093
H -1.7188 -1.6782 0.5203
H -1.5989 -0.4468 1.8562
H -1.3742 -2.1936 2.1713
H 0.3783 -3.1093 -0.0016
H 0.6921 -3.3887 1.6842
H 1.9841 -2.6343 0.6896
H -0.6036 1.6529 0.8603
H 2.1105 2.0534 2.2697
H 0.6715 1.1830 2.9617
H 0.5765 2.9251 2.5833
H 2.0153 2.8834 -0.1950
H 0.5358 3.7866 0.3005
H 0.4687 2.6862 -1.1089
H 1.0260 0.5144 -2.2894
H 0.4400 -2.4686 -1.9164
H 2.1046 -1.7498 -2.1235
H 0.8162 -1.6202 -3.3833
H -1.5647 -0.9404 -1.4374
H -1.2047 -0.2888 -3.0339
H -1.3699 0.8371 -1.6534
H 7.8484 0.1002 1.8457
H 6.5416 2.1171 2.5798
H 6.8585 0.9499 3.8723
H 4.2393 1.2130 2.3221
H 4.5205 1.7053 4.0515
H 3.3092 -0.5508 3.8123
H 4.8168 -0.5968 4.7812
H 4.4542 -1.5497 1.8945
H 4.8210 -2.5371 3.3515
H 7.0000 -2.1580 2.1283
H 6.9975 -1.3227 3.6384
H 5.8741 -0.7970 -2.2599
H 8.3821 -0.7798 -1.9320
H 7.8071 -2.2880 -2.6001
H 8.4163 -1.8052 0.3458
H 9.4262 -2.7878 -0.7520
H 7.8999 -4.1032 0.8569
H 7.7453 -4.5365 -0.8710
H 5.7197 -2.9289 0.7795
H 5.5059 -4.4548 -0.0272
H 4.4548 -2.5097 -1.2322
H 5.7743 -3.2405 -2.1883
H 8.6990 0.2750 0.0026
H 9.6048 1.7112 0.4859
H 9.5330 1.1655 -1.2416
H 9.0519 3.8138 -1.0166
H 7.2205 5.4038 -1.4057
H 4.8647 4.6761 -1.1784
H 4.3348 2.3536 -0.5355
