39
 
C 1.0240 -0.6530 -0.0550
N 1.0576 0.6167 -0.1070
C 2.2780 1.3914 -0.2297
C 3.5388 0.5095 -0.4176
C -0.2709 1.1669 0.0720
C -1.1881 -0.0658 -0.0581
N -0.2684 -1.1555 0.1315
C -0.6261 -2.5345 0.3771
C 0.6174 -3.4358 0.5030
Pd 2.7802 -1.8697 -0.2955
N 4.4956 -3.0582 -0.5304
C 4.7174 -4.0254 0.3936
C 5.9130 -4.7661 0.3727
O 6.2177 -5.6858 1.3240
C 5.4301 -5.9871 2.4171
C 6.8370 -4.5105 -0.6473
C 6.5761 -3.5216 -1.5996
C 5.3937 -2.7842 -1.5119
H 2.3859 2.0161 0.6857
H 2.1863 2.0720 -1.1020
H 3.6849 -0.1941 0.4110
H 4.4264 1.1711 -0.4476
H 3.4804 -0.0707 -1.3552
H -0.5432 1.9435 -0.6740
H -0.3260 1.5830 1.1028
H -1.5669 -0.1508 -1.1037
H -2.0357 -0.0392 0.6573
H -1.2881 -2.9052 -0.4345
H -1.2026 -2.5689 1.3306
H 1.1747 -3.4878 -0.4465
H 0.2601 -4.4548 0.7762
H 1.2862 -3.0726 1.3058
H 3.9790 -4.1694 1.1697
H 5.9648 -6.7078 3.0678
H 4.4729 -6.4392 2.0826
H 5.2274 -5.0690 3.0122
H 7.7670 -5.0634 -0.6905
H 7.2940 -3.3124 -2.3822
H 5.1908 -1.9926 -2.2208
