35
 
C 1.0240 -0.6530 -0.0550
N 0.0149 -1.0114 0.6410
C -0.1275 -2.3152 1.2392
C -1.0156 0.0035 0.6258
C -0.2944 1.2245 0.0378
N 0.8438 0.6280 -0.6098
C 1.7420 1.3079 -1.5095
Pd 2.7802 -1.8697 -0.2955
N 4.4956 -3.0582 -0.5304
C 5.3547 -2.7641 -1.5298
C 4.9607 -1.6851 -2.4774
C 6.5730 -3.4578 -1.6272
C 6.8830 -4.4270 -0.6658
C 5.9635 -4.7273 0.3411
C 4.7455 -4.0350 0.3826
C 3.7016 -4.3594 1.4054
H 0.7968 -2.9252 1.0730
H -0.9991 -2.8297 0.7730
H -0.3259 -2.2082 2.3250
H -1.4427 0.2307 1.6252
H -1.8144 -0.3439 -0.0678
H 0.1085 1.8558 0.8647
H -0.9484 1.8289 -0.6235
H 1.3825 2.3452 -1.6918
H 1.7556 0.7724 -2.4816
H 2.7654 1.3457 -1.0859
H 3.9731 -1.2318 -2.1107
H 4.8834 -2.1294 -3.4988
H 5.7575 -0.9118 -2.5038
H 7.2838 -3.2367 -2.4130
H 7.8303 -4.9512 -0.7013
H 6.1986 -5.4867 1.0775
H 4.0375 -5.1784 2.0790
H 2.7927 -4.7107 0.8712
H 3.4353 -3.4659 2.0037
