53
 
C 0.9010 -0.6430 -0.0020
N -0.3446 -1.0369 0.0631
C -0.7952 -2.3251 -0.3582
C -1.3305 -1.7787 -1.7167
C -0.4589 -2.3348 -2.8066
C -0.8662 -3.7772 -2.9418
C -0.6154 -4.5187 -1.6195
C -1.2590 -3.8178 -0.3971
C -1.0836 0.0703 0.3578
C -0.2370 1.1392 0.3444
N 1.0217 0.6814 0.1405
C 2.2515 1.4921 -0.0370
C 2.1522 2.7001 0.8877
C 2.0693 2.1561 2.3258
C 3.4139 1.5162 2.6541
C 3.7671 0.3608 1.6681
C 3.6119 0.7671 0.2295
Pd 2.6584 -1.8814 -0.0135
N 4.3750 -3.0911 -0.0247
C 4.3536 -4.2807 -0.6841
F 3.2754 -4.6096 -1.4360
C 5.4728 -5.1211 -0.6547
C 6.5732 -4.7643 0.1271
C 6.5644 -3.5546 0.8190
C 5.4644 -2.7054 0.6913
H -1.3555 -2.3360 0.6138
H -1.2333 -0.6788 -1.9185
H -2.4174 -1.9392 -1.8183
H 0.6260 -2.2123 -2.5475
H -0.6504 -1.7817 -3.7471
H -0.2988 -4.2309 -3.7750
H -1.9514 -3.7906 -3.1903
H 0.4821 -4.5508 -1.4464
H -0.9960 -5.5544 -1.7187
H -0.9584 -4.4206 0.4890
H -2.3811 -3.8577 -0.4664
H -2.1594 0.1063 0.4771
H -0.5384 2.1682 0.4661
H 2.2768 1.8529 -1.0922
H 1.2647 3.2956 0.6035
H 3.0187 3.3866 0.7636
H 1.2764 1.3849 2.4554
H 1.8229 2.9786 3.0224
H 3.4157 1.1528 3.7023
H 4.1707 2.3319 2.5837
H 3.1471 -0.5535 1.7112
H 4.8229 0.1000 1.8794
H 3.7755 -0.1515 -0.3614
H 4.4140 1.5165 0.0005
H 5.4832 -6.0456 -1.2169
H 7.4279 -5.4238 0.2023
H 7.3937 -3.2814 1.4599
H 5.4432 -1.7985 1.2552
