49
 
C 0.9010 -0.6430 -0.0020
N -0.3477 -1.1081 0.0020
C -0.6999 -2.5307 0.0174
C 0.6204 -3.3943 -0.0040
C -1.5031 -2.8279 1.2996
C -1.5903 -2.8438 -1.2060
C -1.1417 -0.0116 0.0010
C -0.3258 1.1089 -0.0007
N 0.9590 0.6889 0.0013
C 2.2029 1.4683 0.0254
C 2.1984 2.3393 1.2965
C 3.4385 0.5032 0.0385
C 2.2684 2.3683 -1.2249
Pd 2.6584 -1.8814 -0.0135
N 4.3750 -3.0911 -0.0247
C 5.5835 -2.4888 -0.1333
C 6.7321 -3.2566 -0.2771
C 6.6382 -4.6611 -0.2805
O 7.7315 -5.4500 -0.4467
C 9.0020 -4.9739 -0.7109
C 5.3770 -5.2557 -0.1219
C 4.2451 -4.4430 -0.0052
H 1.2588 -3.1898 0.8688
H 1.2436 -3.1913 -0.8870
H 0.3474 -4.4688 0.0043
H -0.8888 -2.6107 2.1982
H -1.8213 -3.8914 1.3313
H -2.4198 -2.1969 1.3527
H -1.0580 -2.6203 -2.1533
H -2.5204 -2.2291 -1.1865
H -1.9017 -3.9101 -1.2113
H -2.2242 -0.0164 0.0049
H -0.6470 2.1428 0.0046
H 2.1219 1.6987 2.2014
H 1.3238 3.0281 1.2972
H 3.1196 2.9535 1.3674
H 3.4166 -0.1801 0.9018
H 4.3795 1.0834 0.0978
H 3.4702 -0.1159 -0.8751
H 1.4016 3.0640 -1.2661
H 2.2518 1.7516 -2.1492
H 3.1978 2.9765 -1.2235
H 5.6489 -1.4105 -0.1624
H 7.6768 -2.7490 -0.4045
H 9.7137 -5.8189 -0.7870
H 9.3356 -4.3038 0.1099
H 9.0075 -4.4148 -1.6735
H 5.2651 -6.3335 -0.1152
H 3.2602 -4.8832 0.0838
