47
 
P -1.2848 -0.0321 0.9899
N -1.1873 -1.2714 -0.2716
C -2.3420 -1.1087 -1.1847
C 0.0175 -1.5076 -1.0761
C 1.3262 -1.3057 -0.4061
N 2.0135 0.1100 -0.3779
C 1.3113 1.5118 -0.2144
C -0.0598 1.6726 -0.8644
N -1.3422 1.3747 -0.0934
C -1.7690 2.4997 0.7315
N 0.1382 -0.2735 2.2094
C -0.0494 -1.4189 3.0367
C 1.6680 -0.0309 2.0769
C 2.7628 0.0116 0.8745
Pd -3.3005 0.0119 2.3689
N -4.9731 0.0137 3.5259
C -5.5994 1.1991 3.7343
F -5.0892 2.3278 3.1947
C -6.7645 1.2662 4.4995
C -7.2942 0.1054 5.0510
F -8.4301 0.1700 5.7882
C -6.6513 -1.1139 4.8396
C -5.4769 -1.1461 4.0657
F -4.8509 -2.3320 3.8599
H -3.3255 -0.9563 -0.6723
H -2.4348 -2.0005 -1.8355
H -2.1710 -0.2250 -1.8369
H 0.0520 -0.9230 -1.9654
H -0.0414 -2.5945 -1.3229
H 1.9025 -2.1934 -0.0041
H 0.8889 -1.7215 0.5045
H 2.0021 2.3478 0.1292
H 0.9576 1.8964 0.7862
H 0.0362 1.0580 -1.7346
H -0.0785 2.7021 -1.2581
H -1.8081 3.4182 0.1118
H -1.0644 2.6475 1.5757
H -2.7867 2.2867 1.1606
H -0.9712 -1.2697 3.5850
H 0.8342 -1.4601 3.7189
H -0.0376 -2.3133 2.3892
H 0.9911 0.0980 1.4033
H 2.0253 -1.0445 2.0996
H 3.5190 -0.8559 0.8247
H 3.6182 0.7429 0.9786
H -7.2569 2.2136 4.6619
H -7.0666 -2.0166 5.2719
