55
 
P 0.9593 -0.0806 -0.0430
C 0.1947 1.7369 -0.0038
C -1.3414 1.8577 0.0150
C 0.6968 2.5985 1.1925
C 0.6699 2.5735 -1.2161
C 0.4822 -0.9089 -1.7567
C 1.0874 -0.2264 -3.0002
C 0.9910 -2.3680 -1.8709
C -1.0537 -1.0231 -1.9935
C 0.4247 -0.9745 1.5913
C -1.1163 -1.0580 1.7190
C 0.9066 -2.4415 1.6214
C 0.9594 -0.3555 2.8955
Pd 3.4193 -0.0806 -0.0430
N 5.5193 -0.0806 -0.0430
C 6.1853 -0.6320 1.0030
N 7.5373 -0.5390 1.0724
C 8.2519 0.0948 0.1013
O 9.5962 0.2250 0.2054
C 10.3134 -0.1792 1.3137
C 7.5824 0.6370 -1.0004
C 6.1906 0.5398 -1.0474
H -1.8017 1.5697 0.9551
H -1.8330 1.3495 -0.7962
H -1.6489 2.9164 -0.1060
H 0.2726 2.3218 2.1555
H 0.3154 3.6434 1.0995
H 1.8052 2.6693 1.2456
H 0.1894 2.2599 -2.1302
H 1.7797 2.6416 -1.2904
H 0.2884 3.6181 -1.1646
H 2.1932 -0.2425 -2.9656
H 0.7470 0.7692 -3.2239
H 0.7434 -0.7550 -3.9185
H 2.0928 -2.4295 -1.7776
H 0.7103 -2.7919 -2.8653
H 0.4967 -3.0705 -1.1930
H -1.5542 -0.0685 -2.1179
H -1.5704 -1.6538 -1.2477
H -1.2786 -1.5054 -2.9671
H -1.5926 -1.4837 0.8249
H -1.5688 -0.1036 1.9750
H -1.4263 -1.6987 2.5700
H 0.5005 -3.0308 0.8012
H 0.5010 -2.9636 2.5202
H 2.0096 -2.5265 1.6567
H 0.5526 0.6253 3.1110
H 2.0662 -0.3257 2.9136
H 0.6050 -0.9503 3.7688
H 5.6374 -1.1194 1.7970
H 11.3906 0.0345 1.1583
H 10.1823 -1.2696 1.4764
H 9.9711 0.3743 2.2163
H 8.1214 1.1471 -1.7893
H 5.6402 0.9789 -1.8691
