103
 
C 2.3270 0.0340 -0.0000
N 1.5127 -0.9918 0.5064
C 1.7760 -2.2452 1.2983
C 2.6354 -3.2386 0.5547
C 2.2874 -2.0428 2.7514
C 0.2345 -0.5731 0.2704
C 0.2534 0.6392 -0.3499
C -0.9386 1.2972 -0.7217
C -2.1676 0.6966 -0.4125
C -2.1993 -0.5295 0.2644
C -1.0038 -1.1784 0.6128
N 1.5326 1.0857 -0.4669
C 1.8356 2.4539 -1.0167
C 1.3420 3.5686 -0.0410
C 0.7342 3.1645 1.1613
C 0.2195 4.0434 2.0827
C 0.3027 5.4024 1.8739
C 0.9422 5.8861 0.7285
C 1.4631 4.9827 -0.2420
Pd 4.4769 0.0580 0.0014
C 6.6267 0.0821 0.0028
N 7.3147 1.2805 0.0823
C 6.9137 2.7142 0.0575
C 5.6091 3.1920 0.5049
C 4.5801 2.3670 1.3040
C 5.3063 1.3681 2.2291
C 3.8511 3.2582 2.3806
C 5.3164 4.5749 0.4027
C 6.2687 5.5038 0.0971
C 7.5374 5.1048 -0.2232
C 7.8775 3.7416 -0.3366
C 9.2646 3.4780 -0.9535
C 9.3428 4.1462 -2.3345
C 10.4555 3.9449 -0.0856
C 8.5480 0.9084 0.4727
C 8.6456 -0.4438 0.5645
N 7.4591 -1.0304 0.2940
C 7.2992 -2.5201 0.5354
C 7.8904 -3.2016 1.7279
C 8.7034 -2.5450 2.8860
C 8.2032 -2.7907 4.3277
C 10.1671 -3.0476 2.8337
C 7.8314 -4.6195 1.8376
C 7.2448 -5.4129 0.8823
C 6.7316 -4.8417 -0.2473
C 6.7804 -3.4471 -0.4776
C 6.5783 -3.1295 -1.9546
C 5.3633 -2.3258 -2.4050
C 7.9145 -2.5730 -2.4380
H 0.8194 -2.7666 1.4800
H 3.6636 -2.8404 0.4501
H 2.1784 -3.4382 -0.4340
H 2.6521 -4.1966 1.1277
H 3.3171 -1.6419 2.8062
H 2.2962 -3.0360 3.2703
H 1.6005 -1.4158 3.3649
H -0.9365 2.2561 -1.2201
H -3.0979 1.1860 -0.6778
H -3.1546 -0.9748 0.5208
H -1.1037 -2.1127 1.1411
H 1.3183 2.5616 -2.0062
H 2.9126 2.5822 -1.2273
H 0.6361 2.1456 1.4444
H -0.2382 3.6372 2.9701
H -0.1191 6.0577 2.6257
H 1.0210 6.9643 0.6257
H 1.9541 5.4088 -1.1124
H 3.7636 1.9793 0.6961
H 5.7479 1.9317 3.0514
H 6.3984 1.3221 2.1870
H 4.6481 0.6933 2.8105
H 4.6098 3.7126 3.0645
H 3.1340 2.6683 2.9825
H 3.2437 4.1002 2.0205
H 4.3634 5.0088 0.6344
H 6.0106 6.5558 0.1338
H 8.2463 5.8921 -0.4342
H 9.4040 2.4109 -1.1713
H 9.2066 5.2460 -2.2708
H 8.5456 3.7383 -2.9902
H 10.3313 3.9668 -2.8003
H 10.5435 5.0504 -0.0530
H 11.4001 3.5489 -0.5248
H 10.3942 3.5634 0.9546
H 9.3401 1.5735 0.7723
H 9.5501 -0.9339 0.8900
H 8.7010 -1.4549 2.7894
H 8.2461 -3.8600 4.6319
H 7.1824 -2.3943 4.4808
H 8.8777 -2.2444 5.0322
H 10.2396 -4.1375 3.0533
H 10.7986 -2.5370 3.5927
H 10.5988 -2.8627 1.8315
H 8.2833 -5.1563 2.6646
H 7.2509 -6.4972 0.9727
H 6.3699 -5.5401 -0.9964
H 6.4703 -4.0729 -2.5478
H 5.1921 -1.4074 -1.8179
H 4.4559 -2.9703 -2.3883
H 5.5159 -2.0784 -3.4826
H 8.1506 -1.6311 -1.9270
H 7.8878 -2.3947 -3.5247
H 8.7371 -3.3010 -2.2203
