45
 
C 0.9010 -0.6430 -0.0020
N -0.3249 -1.0856 0.3102
C -0.6622 -2.4300 0.7493
C -1.1508 -0.0308 0.1761
C -0.3989 1.0467 -0.2526
N 0.8912 0.6542 -0.3498
C 2.0184 1.4339 -0.7833
C 3.3263 1.0584 -0.4214
C 4.4064 1.8844 -0.7670
C 4.1980 3.0411 -1.5285
C 2.9120 3.3755 -1.9531
C 1.8258 2.5874 -1.5700
Pd 2.6584 -1.8814 -0.0135
P 4.6693 -3.2985 -0.0267
C 4.5631 -5.1166 -0.0499
C 5.5050 -2.8678 -1.5804
C 5.6409 -2.8788 1.4778
C 4.8016 -3.1919 2.7273
C 6.9307 -3.7284 1.5050
C 6.0201 -1.3946 1.4605
H 0.2567 -3.0648 0.7605
H -1.4144 -2.8709 0.0636
H -1.0868 -2.3856 1.7761
H -2.2147 -0.0395 0.3734
H -0.7700 2.0420 -0.4581
H 3.4996 0.1625 0.1567
H 5.4076 1.6350 -0.4417
H 5.0319 3.6775 -1.7978
H 2.7525 4.2535 -2.5681
H 0.8373 2.8724 -1.9057
H 3.9448 -5.3724 -0.9422
H 3.9697 -5.4566 0.8262
H 5.5235 -5.6463 -0.1316
H 4.8451 -3.1551 -2.4273
H 6.4333 -3.4753 -1.6589
H 5.7486 -1.7923 -1.6370
H 4.5242 -4.2666 2.7637
H 3.8678 -2.5902 2.7297
H 5.3750 -2.9607 3.6505
H 6.7018 -4.8133 1.5510
H 7.5419 -3.4973 2.4017
H 7.5483 -3.5429 0.6002
H 5.1132 -0.7613 1.4526
H 6.6334 -1.1589 0.5647
H 6.6181 -1.1395 2.3620
