26
 
N -1.3934 -0.1021 -0.0596
C -0.6977 -1.0086 0.7738
C 0.6311 -0.7424 1.1379
C 1.3086 0.1720 0.5016
C 0.7145 0.8782 -0.5506
C -0.6889 0.8322 -0.7211
Pd -3.4756 -0.2058 -0.2814
N -5.5608 -0.2910 -0.5104
C -6.3075 -1.3524 0.0712
N -7.6340 -1.5654 -0.3285
C -8.2653 -0.6488 -1.0110
O -9.6017 -0.8668 -1.4248
C -10.2581 -2.0805 -1.0976
C -7.6161 0.5511 -1.3313
C -6.2114 0.6459 -1.2017
H -1.1685 -1.8635 1.1169
H 1.0742 -1.2685 1.9082
H 2.2840 0.3729 0.7753
H 1.2992 1.4318 -1.1988
H -1.1657 1.5086 -1.3405
H -5.8747 -1.9663 0.7832
H -11.2544 -2.0681 -1.4895
H -10.2959 -2.1914 -0.0326
H -9.7193 -2.9039 -1.5215
H -8.1638 1.3622 -1.6642
H -5.6951 1.4308 -1.6329
