21
 
N -1.3900 -0.1120 -0.0540
C -0.7958 1.1111 -0.0750
C 0.5970 1.2177 -0.0264
Cl 1.3694 2.7920 -0.0767
C 1.3665 0.0537 0.0397
C 0.7367 -1.1932 0.0692
C -0.6601 -1.2569 0.0232
Pd -3.4756 -0.2017 -0.2821
O -5.5116 -0.2893 -0.5047
C -6.2236 -1.3883 -0.5309
C -7.5509 -1.0389 -0.6902
C -7.5844 0.3419 -0.7544
C -6.2773 0.7648 -0.6351
H -1.4105 1.9987 -0.1502
H 2.4474 0.1149 0.0599
H 1.3264 -2.0996 0.1105
H -1.1615 -2.2153 0.0187
H -5.8233 -2.3891 -0.4433
H -8.3975 -1.7093 -0.7514
H -8.4593 0.9672 -0.8733
H -5.9238 1.7874 -0.6400
