29
 
N -0.6590 -1.2280 -0.0510
C -1.4217 -0.1142 0.0862
Cl -3.1616 -0.2834 0.1735
C -0.8127 1.1448 0.1531
C 0.5797 1.2344 0.0574
C 1.3426 0.0730 -0.0809
C 0.6969 -1.1644 -0.1201
Pd -1.5756 -3.1044 -0.2726
N -2.4923 -4.9807 -0.4941
C -1.7146 -6.0749 -0.5747
C -0.2435 -5.8477 -0.6395
C -2.3126 -7.3459 -0.5901
C -3.7095 -7.4399 -0.4967
C -4.4867 -6.2784 -0.4456
C -3.8468 -5.0337 -0.4721
C -4.6091 -3.7465 -0.4685
H -1.4071 2.0425 0.2622
H 1.0670 2.2007 0.0840
H 2.4199 0.1306 -0.1715
H 1.2680 -2.0740 -0.2534
H -0.0422 -4.7303 -0.5731
H 0.1389 -6.2522 -1.6027
H 0.2495 -6.3792 0.1990
H -1.7153 -8.2461 -0.6493
H -4.1941 -8.4080 -0.4729
H -5.5665 -6.3477 -0.3843
H -5.7060 -3.9241 -0.4240
H -4.3873 -3.2122 -1.4167
H -4.2827 -3.0997 0.3722
