31
 
N -1.3935 -0.1473 -0.0316
C -0.7380 0.9807 0.4169
C 0.6469 1.1109 0.2856
F 1.2716 2.2835 0.4495
C 1.3723 0.0188 -0.0021
C 0.7363 -1.1994 -0.1541
C -0.6501 -1.2428 -0.3259
Pd -3.4691 -0.2058 -0.2704
N -5.5279 -0.3020 -0.5124
C -6.3137 -1.3924 -0.6115
N -7.6035 -1.0275 -0.7177
C -8.7604 -1.8699 -0.8390
C -8.6548 -3.2686 -0.8540
C -9.7180 -4.0608 -1.2603
C -10.9398 -3.5159 -1.3654
C -11.1142 -2.1787 -1.0560
C -10.0159 -1.3318 -0.9426
C -7.5984 0.3042 -0.7191
C -6.3582 0.7374 -0.5781
H -1.2778 1.7891 0.8193
H 2.4137 0.1134 -0.0888
H 1.3106 -2.0804 -0.1713
H -1.1224 -2.1363 -0.6477
H -5.9686 -2.4004 -0.5678
H -7.7496 -3.7282 -0.5845
H -9.6006 -5.0799 -1.4747
H -11.7394 -4.1225 -1.6653
H -12.0872 -1.8013 -0.9383
H -10.1331 -0.2868 -0.9217
H -8.4284 0.9197 -0.8029
H -6.0821 1.7348 -0.5671
