20
 
N -1.3916 -0.0973 -0.0443
C -0.7414 1.1158 0.0998
C 0.6468 1.2306 -0.0464
Cl 1.4595 2.7858 -0.2234
C 1.3714 0.0963 -0.0506
C 0.7389 -1.1266 0.1032
C -0.6447 -1.2252 -0.0491
Pd -3.4715 -0.1881 -0.2706
N -5.5285 -0.3042 -0.4950
C -6.4418 0.6696 -0.6510
O -7.6495 0.1455 -0.7675
C -7.5186 -1.1524 -0.6692
C -6.2354 -1.4393 -0.5013
H -1.2865 2.0023 0.2956
H 2.4121 0.1668 -0.1552
H 1.3142 -1.9813 0.3065
H -1.1167 -2.1634 -0.1485
H -6.2039 1.7101 -0.6898
H -8.2761 -1.8682 -0.7143
H -5.8563 -2.4002 -0.3825
