23
 
N -0.6590 -1.2280 -0.0510
C 0.6651 -1.1464 0.2458
F 1.3991 -2.2793 0.3636
C 1.2467 0.1013 0.5001
C 0.4598 1.2533 0.4134
C -0.8911 1.1468 0.0784
C -1.4396 -0.1183 -0.1406
Pd -1.5756 -3.1044 -0.2726
N -2.4923 -4.9807 -0.4941
C -1.7423 -6.0890 -0.2527
C -2.2830 -7.3613 -0.4446
C -3.5786 -7.4788 -0.9495
F -4.1003 -8.7055 -1.1976
C -4.3294 -6.3280 -1.2085
C -3.7747 -5.0709 -0.9371
H 2.2902 0.1761 0.7769
H 0.8922 2.2256 0.6123
H -1.5105 2.0316 0.0052
H -2.4893 -0.2225 -0.3821
H -0.7328 -5.9774 0.1211
H -1.6960 -8.2435 -0.2220
H -5.3234 -6.4101 -1.6288
H -4.3306 -4.1706 -1.1624
