39
 
N -1.3972 -0.0963 -0.0443
C -0.6092 0.7604 -0.8030
C 0.7789 0.6115 -0.8478
C 1.3750 -0.1606 0.0491
C 0.6134 -0.7963 1.0219
C -0.7799 -0.8825 0.8761
Pd -3.4812 -0.1906 -0.2779
P -5.9189 -0.3313 -0.5272
C -6.5943 1.3764 -0.7193
C -6.3131 -1.2608 -2.0514
C -5.2973 -1.8161 -2.8572
C -5.5504 -2.1284 -4.1912
C -6.8031 -2.1862 -4.6210
C -7.8440 -1.9469 -3.7312
C -7.5904 -1.3457 -2.4915
C -6.6382 -1.1112 0.9208
C -5.7752 -1.5461 1.9406
C -6.2504 -2.3253 2.9908
C -7.5578 -2.4298 3.1844
C -8.4314 -1.7541 2.3408
C -7.9761 -1.2301 1.1220
H -1.0559 1.5207 -1.3692
H 1.3561 1.0970 -1.5634
H 2.4086 -0.2727 0.0158
H 1.0860 -1.2220 1.8493
H -1.3403 -1.5353 1.4731
H -6.1534 1.8635 -1.5742
H -6.3481 1.9552 0.1680
H -7.6566 1.3425 -0.8301
H -4.3411 -1.9663 -2.4676
H -4.7764 -2.3234 -4.8570
H -6.9882 -2.4196 -5.6163
H -8.8198 -2.1997 -4.0010
H -8.3640 -0.9586 -1.9099
H -4.7610 -1.2911 1.9046
H -5.6014 -2.8200 3.6340
H -7.9098 -3.0113 3.9701
H -9.4346 -1.6539 2.6120
H -8.6431 -0.9139 0.3878
