26
 
N -1.3948 -0.1312 -0.0586
C -0.8147 0.6270 1.0080
C 0.5563 0.9212 0.9891
C 1.3426 0.2795 0.1598
C 0.8130 -0.6967 -0.6860
C -0.5818 -0.7774 -0.8816
Pd -3.4715 -0.1992 -0.2738
N -5.5591 -0.3017 -0.5165
C -6.1743 -1.4129 -1.1196
C -7.5131 -1.3427 -1.5333
C -8.0932 -2.3928 -2.4536
C -8.2638 -0.3497 -1.1160
C -7.7335 0.6141 -0.2566
C -6.3364 0.7080 -0.0830
H -1.4009 0.9702 1.7972
H 0.9535 1.6362 1.6219
H 2.3536 0.4991 0.1397
H 1.4463 -1.3565 -1.1750
H -0.9775 -1.3363 -1.6578
H -5.6390 -2.2927 -1.2625
H -7.3384 -3.1182 -2.6887
H -8.4337 -1.9303 -3.3613
H -8.9182 -2.8808 -1.9736
H -9.2492 -0.2911 -1.4265
H -8.3668 1.2611 0.2487
H -5.9140 1.5427 0.3650
