23
 
N -0.6590 -1.2280 -0.0510
C 0.6705 -1.1561 0.2076
Cl 1.5928 -2.6407 0.3109
C 1.2648 0.0877 0.4577
C 0.4765 1.2426 0.4104
C -0.8853 1.1428 0.1184
C -1.4415 -0.1179 -0.1020
Pd -1.5756 -3.1044 -0.2726
N -2.4923 -4.9807 -0.4941
C -1.7738 -6.1131 -0.2730
F -0.5059 -6.0209 0.1969
C -2.3610 -7.3655 -0.4769
C -3.6647 -7.4333 -0.9736
C -4.3777 -6.2565 -1.2137
C -3.7794 -5.0254 -0.9292
H 2.3165 0.1604 0.7021
H 0.9155 2.2122 0.6078
H -1.5068 2.0284 0.0789
H -2.4987 -0.2195 -0.3102
H -1.8083 -8.2726 -0.2684
H -4.1190 -8.3946 -1.1770
H -5.3770 -6.2977 -1.6279
H -4.3058 -4.1031 -1.1377
