50
 
P 1.0700 -0.0712 0.0052
O -0.1417 -0.7239 -0.9911
C 0.3445 -0.5137 -2.3281
O 0.5457 -0.6724 1.5151
C 0.6824 -2.0668 1.5431
O 0.6814 1.4871 -0.5978
C 1.1623 2.4622 0.2581
Pd 3.5300 -0.0712 0.0052
C 5.6800 -0.0712 0.0052
N 6.4528 1.0247 0.0054
C 5.9538 2.3950 0.0119
C 4.4165 2.3330 -0.0213
C 6.4138 3.1073 1.3003
C 6.4886 3.1574 -1.2139
C 7.7286 0.5841 0.0054
C 7.7005 -0.7966 0.0023
N 6.4064 -1.1929 0.0054
C 5.8588 -2.5519 0.0198
C 6.3785 -3.2705 1.2833
C 4.2865 -2.4872 0.0234
C 6.3665 -3.3135 -1.2226
H 0.0167 -1.3097 -3.0217
H 1.4660 -0.5018 -2.4454
H -0.0272 0.4610 -2.7155
H 0.3587 -2.4125 2.5476
H 1.7403 -2.3702 1.4306
H 0.0149 -2.5641 0.8072
H 1.1089 3.4474 -0.2515
H 2.1789 2.2646 0.3989
H 0.6859 2.4727 1.2543
H 4.0683 1.7612 0.8502
H 4.0027 1.7877 -0.8829
H 4.0182 3.3702 -0.0047
H 6.0257 2.5783 2.1975
H 6.0423 4.1547 1.3245
H 7.5230 3.1325 1.3670
H 6.1741 2.6575 -2.1535
H 7.6000 3.1992 -1.1941
H 6.1102 4.2026 -1.2210
H 8.6095 1.2132 0.0071
H 8.5600 -1.4542 0.0020
H 6.0492 -2.7373 2.1995
H 7.4928 -3.2946 1.2917
H 6.0225 -4.3209 1.3259
H 3.9052 -1.9465 0.9015
H 3.8803 -3.5191 0.0354
H 3.8838 -1.9682 -0.8604
H 7.4800 -3.3461 -1.2384
H 6.0281 -2.8168 -2.1553
H 6.0041 -4.3635 -1.2213
