23
 
N -1.4099 -0.0906 -0.0451
C -0.7619 -0.6437 1.0258
C 0.5657 -0.3308 1.3232
C 1.3071 0.3557 0.4126
F 2.5862 0.6682 0.7049
C 0.7275 0.7008 -0.7940
C -0.6591 0.5878 -0.9594
Pd -3.4731 -0.2012 -0.2681
N -5.5254 -0.2966 -0.5039
C -6.1800 0.7207 -1.1576
F -5.5262 1.8002 -1.6071
C -7.5490 0.7124 -1.3058
C -8.2792 -0.3406 -0.8485
F -9.6059 -0.3330 -1.0375
C -7.6485 -1.3826 -0.2067
C -6.2653 -1.3351 -0.0081
F -5.6578 -2.3773 0.5975
H -1.2552 -1.3382 1.6593
H 1.0376 -0.6252 2.2347
H 1.3434 1.0854 -1.5674
H -1.1302 1.0590 -1.8008
H -8.0409 1.5147 -1.7853
H -8.2335 -2.2032 0.1362
