51
 
P 1.0227 0.0973 -0.0049
O -0.1248 1.3041 0.3178
C 0.4039 1.9971 1.4586
O 0.5309 -0.3006 -1.5888
C 1.1387 -1.5253 -1.9412
O 0.6768 -0.6930 1.4748
C 1.2900 -1.9437 1.5103
Pd 3.4827 0.0973 -0.0049
P 5.9427 0.0973 -0.0049
O 6.9988 -0.0036 -1.3584
C 6.4222 0.7892 -2.4257
C 7.0975 0.5346 -3.7879
C 4.8891 0.6342 -2.6991
O 6.3120 1.7355 0.3123
C 5.8879 2.1360 1.6004
C 6.4451 1.2654 2.7478
C 6.3943 3.5677 1.8100
O 6.5361 -1.2646 0.8445
C 5.9741 -2.4780 0.3969
C 6.4124 -2.8357 -1.0318
C 6.4921 -3.5789 1.3315
H 0.0959 3.0597 1.4838
H 1.5295 2.0410 1.5284
H 0.0343 1.5110 2.3870
H 0.6816 -1.8959 -2.8815
H 0.9484 -2.3484 -1.2272
H 2.2274 -1.3897 -2.1086
H 1.1366 -2.3540 2.5293
H 2.3835 -1.8576 1.3366
H 0.7776 -2.6599 0.8434
H 6.6258 1.8457 -2.1705
H 6.8630 -0.4734 -4.2016
H 8.1931 0.6732 -3.7440
H 6.7000 1.2768 -4.5213
H 4.6200 -0.3736 -3.0866
H 4.5750 1.3964 -3.4422
H 4.2553 0.8611 -1.8308
H 4.7757 2.1567 1.6355
H 7.5532 1.2031 2.6873
H 6.0166 0.2458 2.7236
H 6.1565 1.6895 3.7323
H 7.5067 3.5959 1.7728
H 6.0652 3.9618 2.7954
H 6.0017 4.2363 1.0155
H 4.8624 -2.4555 0.4787
H 7.5215 -2.7927 -1.1141
H 5.9564 -2.1533 -1.7729
H 6.0679 -3.8559 -1.2949
H 7.6043 -3.6305 1.2938
H 6.0845 -4.5655 1.0257
H 6.1893 -3.3836 2.3818
