46
 
N -1.3985 -0.6244 -0.0049
C -0.5246 -0.6771 -1.0570
C 0.8043 -1.1019 -0.8486
Cl 1.9127 -1.3511 -2.1917
C 1.2414 -1.3754 0.4468
C 0.3610 -1.2228 1.5155
C -0.9713 -0.8740 1.2648
Pd -3.4119 -0.4683 -0.2396
P -5.8147 -0.2910 -0.4451
O -6.8026 1.0675 -0.8201
C -6.1860 1.7629 -1.9107
C -6.8527 3.1133 -2.2475
C -4.6679 2.0472 -1.7852
O -6.0802 -1.0060 -2.0015
C -5.6647 -2.3758 -2.0566
C -6.0698 -2.9329 -3.4258
C -4.1533 -2.4741 -1.9447
O -6.6087 -0.8211 0.9665
C -6.2173 -0.0938 2.0892
C -6.6192 1.3842 2.0024
C -6.9330 -0.6900 3.2993
H -0.8601 -0.4869 -2.0632
H 2.2588 -1.7104 0.6225
H 0.6997 -1.4154 2.5242
H -1.6854 -0.8626 2.0779
H -6.3495 1.1114 -2.7740
H -6.6799 3.8830 -1.4590
H -7.9319 3.0087 -2.4423
H -6.4266 3.5086 -3.2020
H -4.4529 2.7925 -0.9928
H -4.2975 2.4316 -2.7567
H -4.0850 1.1280 -1.5987
H -6.1437 -3.0343 -1.2807
H -5.6773 -2.2607 -4.2291
H -7.1732 -2.9783 -3.4527
H -5.7029 -3.9724 -3.6036
H -3.6712 -1.8094 -2.6901
H -3.8015 -3.5146 -2.0577
H -3.8683 -2.1965 -0.9401
H -5.1248 -0.2039 2.2386
H -7.7141 1.4911 1.8107
H -6.0366 1.9225 1.2387
H -6.3427 1.9012 2.9332
H -8.0383 -0.5957 3.1915
H -6.6201 -0.1330 4.2051
H -6.6720 -1.7601 3.4280
