27
 
N -0.6664 -1.2467 -0.0591
C -1.4049 -0.0883 0.0094
O -2.7600 -0.1496 -0.0407
C -3.4511 -1.3487 -0.1891
C -0.7472 1.1674 0.0737
C 0.6430 1.2244 0.0315
C 1.3751 0.0458 -0.0342
C 0.6999 -1.1849 -0.0647
Pd -1.5818 -3.0982 -0.2739
O -2.4771 -4.9060 -0.4840
C -2.4469 -5.5770 0.7488
C -3.1368 -6.9388 0.5822
C -1.0047 -5.8061 1.1682
H -4.5488 -1.1550 -0.1161
H -3.1813 -2.0483 0.6204
H -3.2273 -1.8041 -1.1655
H -1.2877 2.1035 0.1141
H 1.1446 2.1851 0.0363
H 2.4568 0.0897 -0.0703
H 1.2737 -2.0967 -0.1317
H -2.9930 -4.9620 1.5166
H -2.6100 -7.5342 -0.1989
H -4.1931 -6.8149 0.2664
H -3.1092 -7.5195 1.5293
H -0.4737 -6.3995 0.3904
H -0.9556 -6.3716 2.1239
H -0.4753 -4.8402 1.2917
