50
 
N -0.6557 -1.2336 -0.0505
C 0.5953 -1.1164 0.4889
O 1.2935 -2.2399 0.7957
C 2.5653 -2.2358 1.3436
C 1.1455 0.1674 0.6983
C 0.3942 1.2978 0.4100
C -0.8783 1.1580 -0.1336
C -1.3791 -0.1235 -0.3920
Pd -1.5754 -3.1074 -0.2738
P -2.6469 -5.2984 -0.5333
C -3.7497 -5.7905 0.8541
C -4.8939 -5.0865 1.3154
C -5.6498 -5.5595 2.3839
C -5.3438 -6.7764 2.9763
C -4.2916 -7.5407 2.4754
C -3.4972 -7.0438 1.4348
C -3.7911 -5.2302 -1.9229
C -3.5602 -6.1261 -2.9987
C -4.2095 -5.9666 -4.2225
C -5.1179 -4.9261 -4.3857
C -5.3674 -4.0438 -3.3246
C -4.6889 -4.1825 -2.0992
C -1.3576 -6.6027 -0.6204
C -1.7317 -7.9443 -0.7959
C -0.7693 -8.9534 -0.6781
C 0.5702 -8.6339 -0.4514
C 0.9248 -7.3027 -0.2955
O 2.0862 -7.0007 -0.0716
N -0.0413 -6.3308 -0.3525
H 2.9177 -3.2732 1.5032
H 2.5529 -1.7115 2.3238
H 3.2792 -1.7213 0.6604
H 2.1421 0.3060 1.0959
H 0.8037 2.2793 0.6142
H -1.4723 2.0391 -0.3356
H -2.3738 -0.2345 -0.8030
H -5.2727 -4.1873 0.9087
H -6.4851 -4.9718 2.7424
H -5.9425 -7.1303 3.8044
H -4.0926 -8.5157 2.9015
H -2.6981 -7.6646 1.0716
H -2.8309 -6.9149 -2.9415
H -3.9840 -6.6314 -5.0526
H -5.6088 -4.7945 -5.3429
H -6.0616 -3.2304 -3.4712
H -4.8224 -3.4563 -1.3081
H -2.7778 -8.2064 -0.9199
H -1.0562 -9.9924 -0.7451
H 1.3226 -9.4094 -0.3634
H 0.2899 -5.3785 -0.1191
