36
 
N -0.6590 -1.2280 -0.0510
C 0.6866 -1.1197 0.1606
O 1.4458 -2.2458 0.1893
C 2.8093 -2.2688 0.4200
C 1.2450 0.1572 0.3929
C 0.4223 1.2804 0.4045
C -0.9434 1.1388 0.1772
C -1.4696 -0.1345 -0.0509
Pd -1.5756 -3.1044 -0.2726
N -2.4923 -4.9807 -0.4941
C -1.6950 -6.0633 -0.3547
C -0.2579 -5.8357 -0.0191
C -2.2348 -7.3499 -0.4774
C -3.6014 -7.4966 -0.7633
C -4.2142 -8.8590 -0.9115
C -4.3992 -6.3519 -0.9117
C -3.8202 -5.0819 -0.7631
C -4.6218 -3.8315 -0.9484
H 3.1696 -3.3164 0.4329
H 3.0435 -1.8084 1.4056
H 3.3416 -1.7154 -0.3838
H 2.3008 0.2933 0.5849
H 0.8453 2.2580 0.5995
H -1.5889 2.0072 0.1925
H -2.5324 -0.2585 -0.2092
H -0.0477 -4.7355 0.0433
H 0.3872 -6.2968 -0.7939
H -0.0400 -6.3050 0.9649
H -1.6019 -8.2196 -0.3490
H -3.4643 -9.6629 -0.7523
H -4.6362 -8.9713 -1.9325
H -5.0277 -8.9876 -0.1666
H -5.4533 -6.4518 -1.1436
H -5.6797 -4.0635 -1.2009
H -4.1861 -3.2400 -1.7816
H -4.5908 -3.2194 -0.0251
