28
 
N -1.4039 -0.0747 0.0963
C -0.8055 1.1488 0.2172
C 0.6036 1.2617 0.0549
O 1.2242 2.4602 -0.1057
C 0.5488 3.6619 -0.1255
C 1.3708 0.0974 0.0117
C 0.7402 -1.1421 0.0565
C -0.6579 -1.2005 0.0079
Pd -3.4016 -0.1494 -0.2595
N -5.3486 -0.1554 -0.5991
C -5.4780 0.4186 0.6970
N -6.1716 0.8304 -1.1529
C -7.3583 0.3532 -1.4115
C -7.3357 -1.0236 -1.3343
C -6.0382 -1.3372 -0.9639
H -1.4144 2.0341 0.2321
H 1.2460 4.5088 -0.2763
H 0.0381 3.7851 0.8493
H -0.2032 3.6701 -0.9473
H 2.4515 0.1523 -0.0788
H 1.3329 -2.0480 0.0701
H -1.1465 -2.1570 -0.0932
H -4.7956 1.3177 0.6258
H -4.7916 -0.1836 1.3312
H -6.4503 0.6695 1.1480
H -8.2468 0.9445 -1.6457
H -8.1391 -1.7229 -1.5767
H -5.6698 -2.3453 -0.8987
