39
 
N -1.3933 -0.0426 -0.0585
C -0.6181 -1.0200 -0.5630
C 0.7004 -1.1435 -0.1730
C 1.3501 -0.1246 0.4648
N 2.7247 -0.2521 0.8567
C 3.6635 -1.0816 0.1132
C 3.2106 0.4167 2.0458
C 0.5994 1.0309 0.6944
C -0.7911 1.0046 0.5872
Pd -3.4267 -0.1045 -0.2676
N -5.5255 -0.2525 -0.4932
C -6.1684 -1.4736 -0.6129
N -5.4347 -2.7156 -0.5314
C -4.0092 -2.7304 -0.3235
C -6.0889 -3.9983 -0.6926
C -7.5830 -1.4791 -0.7550
C -8.2611 -0.3340 -1.1003
C -7.6230 0.8518 -1.0091
C -6.3026 0.8810 -0.5444
H -1.0294 -1.7621 -1.1851
H 1.1840 -2.0254 -0.4041
H 3.2454 -1.5589 -0.7420
H 4.0527 -1.8954 0.7251
H 4.4873 -0.4839 -0.2697
H 2.4532 0.9859 2.5433
H 4.0062 1.1162 1.7949
H 3.5727 -0.2967 2.7869
H 1.0556 1.9220 0.9874
H -1.3579 1.8450 0.9512
H -3.7356 -1.8520 -0.0290
H -3.4605 -3.1476 -1.1696
H -3.7288 -3.2447 0.5876
H -7.1434 -3.9063 -0.8519
H -5.9615 -4.6127 0.2010
H -5.6999 -4.5380 -1.5574
H -8.1707 -2.3418 -0.6496
H -9.2794 -0.3477 -1.4118
H -8.1634 1.7343 -1.2657
H -5.8878 1.8230 -0.3251
