40
 
P 0.9309 -0.0555 -0.0464
O -0.1090 -0.9542 -1.0729
C 0.4091 -0.7086 -2.3902
C -0.2913 -1.5106 -3.4717
O 0.4093 -0.5733 1.4912
C 0.6669 -1.9314 1.6765
C 2.1687 -2.2145 1.6822
O 0.4543 1.4806 -0.6565
C -0.9677 1.5639 -0.5330
C -1.5047 2.8332 -1.1618
Pd 3.3909 -0.0555 -0.0464
N 5.4909 -0.0555 -0.0464
C 6.1553 -1.2376 -0.0839
N 7.5076 -1.2597 0.0280
C 8.2217 -0.1085 0.1731
O 9.5664 -0.1428 0.3292
C 10.2871 -1.3141 0.4436
C 7.5521 1.1189 0.1852
C 6.1607 1.1188 0.0771
H 1.5037 -0.9267 -2.4748
H 0.2341 0.3479 -2.6894
H -0.0375 -2.5859 -3.3947
H 0.0556 -1.1400 -4.4660
H -1.3867 -1.3567 -3.4096
H 0.0980 -2.5515 0.9507
H 0.2621 -2.1839 2.6821
H 2.6221 -2.0273 0.6889
H 2.3300 -3.2768 1.9389
H 2.6554 -1.5557 2.4318
H -1.2809 1.5214 0.5321
H -1.5063 0.7733 -1.1001
H -1.1137 3.7169 -0.6250
H -2.6168 2.8234 -1.0942
H -1.2249 2.8759 -2.2367
H 5.6048 -2.1638 -0.1721
H 11.3636 -1.0763 0.5635
H 10.1538 -1.9359 -0.4667
H 9.9499 -1.8856 1.3365
H 8.0919 2.0504 0.3027
H 5.6085 2.0487 0.1163
