43
 
N -0.6790 1.1930 0.0010
C 0.6750 1.2153 -0.0088
C 1.3430 2.5338 -0.0189
C 1.4052 0.0239 -0.0105
C 0.7208 -1.1975 0.0001
C 1.4752 -2.4940 0.0016
C -0.6820 -1.1975 0.0098
C -1.3760 0.0248 0.0091
C -2.8719 0.0686 0.0192
Pd -1.6914 3.0329 0.0055
N -2.7038 4.8727 0.0100
C -4.0649 4.8352 0.0070
C -4.8094 6.0184 0.0173
C -4.1470 7.2432 0.0488
C -2.7512 7.2717 0.0712
C -2.0615 8.4815 0.1399
C -0.6699 8.4926 0.1718
C 0.0682 7.2917 0.1142
C 1.5643 7.2765 0.1207
O 2.1486 6.2048 0.0461
C 2.4158 8.5193 0.1994
C -0.6457 6.0762 0.0459
C -2.0354 6.0574 0.0363
H 0.5273 3.2839 -0.0141
H 1.9646 2.6384 -0.9332
H 1.9812 2.6443 0.8829
H 2.4885 0.0514 -0.0191
H 2.5736 -2.3255 -0.0080
H 1.2046 -3.0855 -0.8979
H 1.2191 -3.0741 0.9128
H -1.2221 -2.1369 0.0182
H -3.3048 -0.9559 0.0262
H -3.2348 0.6038 -0.8822
H -3.2232 0.6112 0.9208
H -4.5717 3.8797 -0.0034
H -5.8908 5.9891 0.0097
H -4.7180 8.1639 0.0637
H -2.5966 9.4217 0.1796
H -0.2072 9.4592 0.2379
H 1.8546 9.4627 0.2856
H 3.0354 8.5940 -0.7175
H 3.0777 8.4584 1.0872
H -0.1478 5.1336 0.0042
