36
 
N 1.0137 0.0941 -0.0310
C 0.5528 -1.2864 0.1701
C 0.5531 0.9580 1.0644
C 0.5578 0.6110 -1.3280
Pd 3.1137 0.0941 -0.0310
P 5.5737 0.0941 -0.0310
C 6.4570 -1.0654 1.0626
C 6.0555 -0.5229 -1.6687
C 6.1022 1.7671 0.5157
C 5.5832 2.0659 1.9229
C 7.6454 1.8516 0.4884
C 5.5413 2.8002 -0.4782
H -0.5594 -1.3390 0.1787
H 0.9397 -1.6832 1.1331
H 0.9367 -1.9420 -0.6406
H -0.5592 0.9903 1.1069
H 0.9372 1.9914 0.9269
H 0.9401 0.5836 2.0364
H -0.5544 0.6320 -1.3807
H 0.9462 -0.0245 -2.1522
H 0.9462 1.6393 -1.4891
H 6.0897 -2.0888 0.8255
H 6.1206 -0.8719 2.1058
H 7.5544 -1.0371 0.9938
H 5.6743 -1.5415 -1.8620
H 7.1672 -0.5177 -1.7256
H 5.6799 0.1852 -2.4372
H 5.9912 1.3424 2.6565
H 4.4743 2.0126 1.9386
H 5.8991 3.0841 2.2366
H 8.1068 1.1299 1.1919
H 7.9937 2.8639 0.7826
H 8.0383 1.6376 -0.5308
H 4.4320 2.7616 -0.5038
H 5.9192 2.6065 -1.5071
H 5.8544 3.8284 -0.1937
