77
 
O 0.9165 0.0240 -0.0495
C 0.4279 -1.0480 -0.8087
C 0.9953 -2.3507 -0.2602
C -1.0941 -1.0508 -0.7910
Pd 2.9665 0.0240 -0.0495
C 5.1165 0.0240 -0.0495
N 5.8165 1.2087 0.0777
C 5.4535 2.6585 0.0756
C 4.1976 3.1840 0.5822
C 3.0229 2.4254 1.2125
C 2.7799 3.0447 2.6408
C 1.8313 2.7125 0.2676
C 3.9638 4.5934 0.5278
C 4.8917 5.4961 0.1193
C 6.0982 5.0509 -0.3380
C 6.3963 3.6682 -0.4365
C 7.6891 3.3585 -1.2144
C 7.5948 3.9734 -2.6265
C 8.9894 3.8464 -0.5423
C 7.0566 0.7967 0.3855
C 7.1093 -0.5796 0.4212
N 5.8822 -1.1011 0.1505
C 5.4547 -2.5375 0.1736
C 5.9958 -3.5222 1.1214
C 7.0306 -3.2529 2.2302
C 6.5254 -3.6389 3.6258
C 8.3327 -4.0322 1.9610
C 5.5957 -4.8848 1.0312
C 4.7072 -5.3357 0.0865
C 4.1964 -4.4597 -0.8305
C 4.5545 -3.0883 -0.8430
C 4.2202 -2.4606 -2.2042
C 3.6053 -1.1020 -2.4477
C 5.5604 -2.4954 -2.8988
H 0.6640 -0.8996 -1.8771
H 0.6556 -2.5074 0.7872
H 2.1109 -2.2723 -0.2762
H 0.6394 -3.2106 -0.8728
H -1.4782 -1.1624 0.2422
H -1.4729 -1.8850 -1.4223
H -1.4663 -0.0963 -1.2236
H 3.1519 1.3598 1.4788
H 2.7586 4.1559 2.6894
H 3.6067 2.7785 3.3342
H 1.8160 2.7348 3.0845
H 1.4415 3.7337 0.4420
H 0.9282 2.1410 0.4465
H 2.1275 2.6503 -0.8102
H 3.0377 5.0568 0.8388
H 4.6452 6.5544 0.1501
H 6.7822 5.8213 -0.6664
H 7.7835 2.2786 -1.3841
H 7.4841 5.0790 -2.5935
H 6.7144 3.5619 -3.1627
H 8.5115 3.7621 -3.2119
H 9.1010 4.9502 -0.5963
H 9.8622 3.4096 -1.0807
H 9.0549 3.5215 0.5156
H 7.8728 1.4602 0.6362
H 8.0192 -1.1018 0.6687
H 7.2813 -2.1914 2.2985
H 6.2736 -4.7182 3.6949
H 5.6383 -3.0317 3.8879
H 7.3270 -3.4452 4.3733
H 8.1604 -5.1313 1.9671
H 9.0926 -3.8312 2.7482
H 8.7500 -3.7233 0.9829
H 5.9912 -5.6484 1.6887
H 4.4559 -6.3921 0.0186
H 3.5829 -4.9099 -1.6064
H 3.5155 -3.1242 -2.7719
H 4.2373 -0.2588 -2.1908
H 2.6589 -1.0360 -1.9593
H 3.4506 -1.0012 -3.5515
H 6.3023 -1.9745 -2.2567
H 5.5515 -1.9818 -3.8720
H 5.8304 -3.5665 -3.0256
