133
 
C 0.9010 -0.6430 -0.0020
N 0.5760 0.2872 -1.0189
C 0.9334 0.6852 -2.4404
C 1.2824 -0.2936 -3.5007
C 1.8124 -1.7219 -3.3026
C 1.0168 -2.9683 -3.2783
C 3.0987 -2.0860 -4.2434
C 1.1925 0.0889 -4.8384
C 0.8209 1.3587 -5.2107
C 0.6555 2.3435 -4.2668
C 0.7467 2.0909 -2.8883
C 0.6157 3.3866 -2.0029
C 1.6498 4.5205 -2.3256
C -0.7650 4.0371 -2.1957
C -0.4993 0.9045 -0.5293
C -0.8921 0.4035 0.6379
N -0.0644 -0.5706 1.0572
C -0.1801 -1.0967 2.4815
C -1.4014 -1.1119 3.3368
C -2.7997 -0.5475 3.0631
C -3.9378 -1.5441 3.3045
C -2.9891 0.6826 3.9810
C -1.3365 -1.6217 4.6677
C -0.2182 -2.1566 5.1955
C 0.9190 -2.0799 4.4962
C 1.0063 -1.4653 3.2220
C 2.4226 -1.1180 2.7425
C 2.4491 0.4194 2.5693
C 3.5037 -1.8942 3.5640
Pd 2.6584 -1.8814 -0.0135
C 4.4159 -3.1199 -0.0250
N 5.7162 -2.6446 -0.0949
C 6.3461 -1.2168 -0.2840
C 7.7635 -0.7686 -0.0918
C 8.9251 -1.5865 0.4212
C 10.3505 -1.0323 0.0638
C 8.7785 -1.5799 1.9258
C 8.1318 0.6268 -0.2395
C 7.3247 1.5735 -0.7369
C 6.0978 1.2256 -1.0076
C 5.5877 -0.0549 -0.6898
C 4.1973 -0.1024 -0.7601
C 3.4582 1.2156 -0.9128
C 3.9525 -0.9025 -1.8953
C 6.5667 -3.8549 0.0574
C 5.6685 -4.9075 0.6870
N 4.3836 -4.6006 0.1579
C 3.4169 -5.6366 -0.3034
C 1.9829 -5.3905 -0.2674
C 1.3756 -4.1546 0.3176
C -0.1671 -4.1167 0.5201
C 1.9417 -3.8959 1.6262
C 1.0699 -6.3133 -0.7973
C 1.4779 -7.4565 -1.3916
C 2.7953 -7.7956 -1.3732
C 3.8153 -6.9844 -0.8039
C 5.2418 -7.6446 -0.8930
C 5.5623 -8.6005 0.2993
C 5.4422 -8.4893 -2.1614
H 1.8496 -1.6251 -2.2204
H 0.8203 -3.2592 -4.3192
H 0.1236 -2.8440 -2.6435
H 1.6898 -3.7347 -2.7973
H 3.5540 -1.4158 -5.0085
H 3.8453 -2.8530 -3.8904
H 3.7850 -2.9164 -3.9140
H 1.4044 -0.6235 -5.6220
H 0.7037 1.6009 -6.2558
H 0.4328 3.3312 -4.6429
H 0.7795 3.1516 -0.9295
H 1.6082 4.8530 -3.3879
H 2.6978 4.2567 -2.0784
H 1.4111 5.4367 -1.7289
H -0.8833 4.3966 -3.2346
H -0.8995 4.9104 -1.5216
H -1.5852 3.3371 -2.0068
H -1.0311 1.6916 -0.9796
H -1.7183 0.8760 1.1009
H -2.9588 -0.2543 2.0390
H -3.9486 -1.9507 4.3340
H -3.8575 -2.3817 2.5857
H -4.9056 -1.0181 3.1642
H -3.0250 0.3859 5.0529
H -3.9359 1.2184 3.7765
H -2.1378 1.3834 3.8357
H -2.1579 -1.6153 5.3669
H -0.1892 -2.5621 6.2004
H 1.7333 -2.4661 5.0704
H 2.7002 -1.4398 1.8002
H 2.0278 0.9398 3.4476
H 1.7478 0.7504 1.7858
H 3.3978 0.8246 2.1856
H 3.5261 -1.4787 4.5727
H 4.5245 -1.9772 3.1466
H 3.2272 -2.9841 3.6628
H 8.8909 -2.5887 -0.0299
H 10.5978 -0.0337 0.4819
H 10.4948 -0.9778 -1.0388
H 11.1349 -1.6567 0.5198
H 8.8734 -0.5240 2.2775
H 9.5696 -2.1939 2.3899
H 7.7754 -1.9671 2.1963
H 9.0559 1.0883 0.0096
H 7.6061 2.6109 -0.8887
H 5.5395 2.0496 -1.4248
H 3.9054 -0.4982 0.1731
H 3.5356 1.6724 -1.9305
H 3.6638 1.8861 -0.0737
H 2.4895 1.0848 -0.6994
H 4.1444 -0.4527 -2.8725
H 3.6960 -1.9374 -1.7567
H 3.9886 -2.0060 -1.9138
H 7.4088 -3.8168 0.7707
H 6.8929 -4.2280 -0.9420
H 5.5966 -4.7159 1.7807
H 5.9999 -5.9455 0.7303
H 1.6061 -3.3803 -0.3606
H -0.4837 -4.8886 1.2628
H -0.6975 -4.1877 -0.4393
H -0.4793 -3.1437 0.9400
H 1.6328 -4.5679 2.4619
H 1.5113 -2.9844 1.6909
H 2.9919 -3.7393 1.7109
H 0.0051 -6.1620 -0.8063
H 0.7530 -8.1065 -1.8638
H 2.9624 -8.7360 -1.8526
H 6.0226 -6.8817 -1.0370
H 4.8171 -9.4253 0.3779
H 5.6115 -8.0943 1.2834
H 6.5541 -9.0903 0.1434
H 4.8439 -9.4243 -2.1310
H 6.4853 -8.8541 -2.2521
H 5.1923 -7.8577 -3.0350
