55
 
P 0.9908 0.0178 -0.0980
C 0.0856 1.0631 1.0824
C 0.5075 0.9026 -1.5851
C 0.8554 2.2292 -1.8252
C 0.3914 2.8705 -2.9810
C -0.4081 2.1851 -3.9051
C -0.7340 0.8469 -3.6870
C -0.2782 0.2062 -2.5322
C 0.5060 -1.6383 0.3364
C -0.8548 -1.9897 0.2787
C -1.2629 -3.2800 0.6149
C -0.3123 -4.2236 1.0090
C 1.0512 -3.8822 1.0356
C 1.4696 -2.5839 0.6868
Pd 3.4508 0.0178 -0.0980
P 5.9108 0.0178 -0.0980
C 6.8145 1.5866 0.0466
C 6.4406 -1.0131 1.2716
C 5.5163 -1.5561 2.1716
C 5.9685 -2.3234 3.2554
C 7.3383 -2.5528 3.4353
C 8.2593 -2.0165 2.5345
C 7.8128 -1.2473 1.4598
C 6.3579 -0.4515 -1.7779
C 5.3779 -0.7919 -2.7161
C 5.7541 -1.2332 -3.9922
C 7.1070 -1.3317 -4.3362
C 8.0889 -0.9904 -3.4057
C 7.7178 -0.5568 -2.1312
H -1.0110 1.0070 1.0051
H 0.4521 2.1100 0.9982
H 0.4080 0.7232 2.0950
H 1.4681 2.7617 -1.1143
H 0.6460 3.9042 -3.1564
H -0.7739 2.6893 -4.7905
H -1.3458 0.3114 -4.4069
H -0.5523 -0.8333 -2.3815
H -1.6006 -1.2674 -0.0353
H -2.3144 -3.5448 0.5724
H -0.6370 -5.2198 1.2853
H 1.7751 -4.6288 1.3285
H 2.5288 -2.2845 0.6842
H 6.4881 2.0260 1.0211
H 6.4453 2.2856 -0.7346
H 7.9112 1.5001 0.0436
H 4.4561 -1.3765 2.0400
H 5.2610 -2.7378 3.9607
H 7.6893 -3.1424 4.2726
H 9.3201 -2.1891 2.6704
H 8.5446 -0.8299 0.7838
H 4.3301 -0.7394 -2.4541
H 4.9976 -1.5100 -4.7132
H 7.3960 -1.6784 -5.3203
H 9.1377 -1.0716 -3.6673
H 8.4992 -0.3155 -1.4246
