17
 
C 1.1319 -0.0800 0.1638
O 0.0024 -0.0994 0.1853
Pd 3.1838 -0.0515 0.1306
N 5.2102 -0.0268 0.0845
C 5.8885 1.1537 0.0786
N 7.2429 1.1660 -0.0577
C 7.9582 0.0108 -0.1578
O 9.3014 0.0354 -0.3630
C 10.0226 1.1948 -0.5840
C 7.2857 -1.2123 -0.0749
C 5.8900 -1.2041 0.0303
H 5.3544 2.0892 0.1591
H 11.0969 0.9562 -0.7407
H 9.9337 1.8663 0.2935
H 9.6504 1.7180 -1.4932
H 7.8242 -2.1512 -0.1239
H 5.3456 -2.1381 0.0520
