55
 
P 1.0535 -0.0512 -0.0672
C 0.4074 0.9838 1.3299
C 0.9643 0.4256 2.6533
C 0.8876 1.6004 3.6142
C 1.3306 2.7932 2.7821
C 1.1045 2.3648 1.3219
C 0.5247 0.6486 -1.7070
C 0.9757 2.0589 -2.0057
C 0.6989 2.1749 -3.5015
C 1.2286 0.8642 -4.0569
C 1.0248 -0.1599 -2.9280
C 0.4942 -1.7570 0.3926
C -1.0337 -1.9056 0.3368
C -1.1917 -3.4157 0.4362
C -0.1297 -3.9506 -0.5206
C 0.9455 -2.8460 -0.5915
Pd 3.5135 -0.0512 -0.0672
N 5.6135 -0.0512 -0.0672
C 6.2953 -0.5920 0.9773
F 5.6163 -1.1919 1.9849
C 7.6913 -0.5036 1.0211
C 8.3676 0.1481 -0.0139
C 7.6470 0.6915 -1.0790
C 6.2549 0.5798 -1.0867
H -0.6979 1.0917 1.3950
H 2.0426 0.1720 2.5210
H 0.4275 -0.4697 3.0321
H 1.4752 1.4760 4.5530
H -0.1798 1.7504 3.8783
H 2.4217 2.9867 2.9182
H 0.7853 3.7096 3.0947
H 2.1370 2.1940 0.9344
H 0.6508 3.1526 0.6945
H -0.5920 0.6488 -1.7622
H 2.0645 2.1324 -1.8095
H 0.4085 2.8189 -1.4348
H 1.1609 3.0685 -3.9746
H -0.4009 2.2065 -3.6691
H 2.3265 0.9863 -4.1864
H 0.8045 0.5878 -5.0495
H 2.0226 -0.6049 -2.7277
H 0.3245 -0.9796 -3.2120
H 0.8454 -2.0499 1.4033
H -1.4292 -1.5683 -0.6498
H -1.5714 -1.3651 1.1449
H -2.2138 -3.8117 0.2405
H -0.9020 -3.7080 1.4690
H -0.5787 -4.0582 -1.5364
H 0.2440 -4.9457 -0.1987
H 0.8917 -2.4613 -1.6267
H 1.9846 -3.1914 -0.4192
H 8.2435 -0.9207 1.8531
H 9.4461 0.2392 0.0123
H 8.1594 1.2058 -1.8820
H 5.6783 1.0134 -1.8934
