67
 
P 1.0951 -0.0253 -0.0177
N 0.3313 -1.6244 0.0273
C -1.1208 -1.7288 -0.0150
C 0.9898 -2.4647 -0.9917
O 0.5884 0.5575 1.5008
C 1.0034 1.9051 1.5931
O 0.7357 0.3881 -1.6360
C 1.1198 1.7329 -1.8415
Pd 3.5551 -0.0253 -0.0177
P 6.0151 -0.0253 -0.0177
C 6.6752 1.7625 -0.0272
C 6.1883 2.5317 1.2252
C 8.2127 1.9056 -0.0972
C 5.9855 2.5524 -1.1813
C 6.5676 -0.9613 1.5481
C 6.0454 -2.4116 1.5126
C 8.1107 -1.0805 1.6024
C 6.0490 -0.3594 2.8644
C 6.4514 -0.7603 -1.6258
C 7.1889 -0.1200 -2.6320
C 7.4212 -0.7270 -3.8555
C 6.9566 -2.0310 -4.1314
N 7.0603 -2.6108 -5.4570
C 7.5960 -1.8822 -6.6047
C 6.4937 -3.9121 -5.7959
C 6.3306 -2.7157 -3.0620
C 6.0671 -2.0818 -1.8540
H -1.5768 -1.0674 0.7453
H -1.3863 -2.7760 0.2686
H -1.5185 -1.5405 -1.0318
H 2.0983 -2.4496 -0.8481
H 0.7728 -2.1006 -2.0210
H 0.6650 -3.5228 -0.9153
H 0.5137 2.3759 2.4704
H 0.6843 2.5347 0.7325
H 2.1025 1.9662 1.7425
H 1.2511 1.9025 -2.9295
H 2.1026 1.9877 -1.3758
H 0.3244 2.4380 -1.5109
H 6.7229 2.2590 2.1340
H 5.0882 2.4149 1.3626
H 6.4084 3.6181 1.1430
H 8.6932 1.6182 0.8427
H 8.4936 2.9705 -0.2298
H 8.6979 1.3182 -0.8884
H 4.8796 2.5263 -1.0550
H 6.1681 2.2357 -2.2114
H 6.3033 3.6195 -1.1533
H 6.5467 -3.0102 0.7273
H 4.9434 -2.4404 1.3939
H 6.3066 -2.9371 2.4610
H 8.5101 -1.4731 0.6395
H 8.4398 -1.7642 2.4135
H 8.6050 -0.1341 1.8393
H 4.9490 -0.2257 2.8270
H 6.5471 0.5678 3.1449
H 6.3040 -1.0217 3.7198
H 7.5898 0.8606 -2.5515
H 7.9488 -0.1093 -4.5570
H 7.9827 -0.8763 -6.4031
H 6.7887 -1.7407 -7.3552
H 8.4278 -2.4542 -7.0607
H 6.0350 -4.4671 -4.9700
H 7.2801 -4.5666 -6.2199
H 5.6823 -3.7713 -6.5414
H 5.9850 -3.7292 -3.1122
H 5.5366 -2.6459 -1.1073
