49
 
P 0.9818 0.0623 0.0761
N 0.2108 -0.8272 1.4014
C -1.2422 -0.9208 1.4510
C 0.8671 -2.1452 1.4999
O 0.4806 1.6343 0.4976
C 0.8908 2.4970 -0.5418
O 0.6269 -1.0213 -1.1945
C 1.0207 -0.4155 -2.4078
Pd 3.4418 0.0623 0.0761
P 5.9018 0.0623 0.0761
N 6.8969 1.1429 -0.9853
C 6.5653 0.9875 -2.4307
C 6.5538 2.5684 -0.7053
N 6.3753 0.8113 1.6441
C 5.9312 0.0218 2.8046
C 7.8440 0.9864 1.7621
N 6.3557 -1.5486 -0.5850
C 7.8141 -1.7826 -0.5429
C 5.7159 -2.6524 0.1643
H -1.6975 0.0823 1.3501
H -1.5161 -1.2966 2.4665
H -1.6351 -1.6379 0.7032
H 1.9754 -2.0204 1.5723
H 0.6507 -2.7751 0.6080
H 0.5397 -2.6928 2.4074
H 0.3954 3.4812 -0.4107
H 0.5726 2.1600 -1.5537
H 1.9893 2.6589 -0.5038
H 1.1676 -1.2096 -3.1678
H 1.9992 0.1190 -2.3395
H 0.2236 0.2559 -2.7979
H 6.8421 -0.0003 -2.8395
H 7.1351 1.7364 -3.0383
H 5.4885 1.1975 -2.6566
H 6.6096 2.8526 0.3582
H 5.5192 2.8370 -1.0254
H 7.2680 3.2397 -1.2333
H 4.8356 -0.1385 2.7972
H 6.1701 0.5793 3.7424
H 6.4666 -0.9524 2.8707
H 8.2702 1.6610 0.9985
H 8.3851 0.0245 1.6862
H 8.0965 1.4722 2.7302
H 8.3762 -0.9754 -1.0482
H 8.0559 -2.7266 -1.0838
H 8.1941 -1.9113 0.4967
H 4.6119 -2.6035 0.0973
H 6.0285 -2.6800 1.2344
H 6.0174 -3.6361 -0.2715
