74
 
P 0.9730 -0.0961 -0.0064
C 0.3955 0.7794 -1.6621
C -1.0688 0.6846 -2.1731
C -1.9763 1.4790 -1.2634
C -1.5315 2.9629 -1.1395
C -0.0261 3.1467 -0.8867
C 0.8118 2.2614 -1.8010
C 0.3815 -1.8643 -0.3255
C 0.4300 -3.1232 0.6518
C -0.6055 -4.1462 0.1623
C -0.3242 -4.5612 -1.2769
C -0.2018 -3.3440 -2.1877
C 0.8653 -2.3983 -1.6662
C 0.5847 0.8292 1.6731
C -0.9247 0.9222 2.1191
C -1.5288 -0.4668 2.3864
C -0.6848 -1.2175 3.4436
C 0.8560 -1.1520 3.2052
C 1.3105 0.2550 2.9190
Pd 3.4330 -0.0961 -0.0064
C 5.5830 -0.0961 -0.0064
N 6.3561 0.5200 0.9010
C 5.8929 1.2903 2.0510
C 5.0376 2.4688 1.5957
C 7.6292 0.2732 0.5275
C 7.5998 -0.5005 -0.6212
N 6.3102 -0.7212 -0.9449
C 5.7991 -1.4836 -2.0841
C 4.2685 -1.5000 -2.1071
H 0.9972 0.3339 -2.4726
H -1.4082 -0.3658 -2.2709
H -1.1453 1.1196 -3.2029
H -1.9193 0.9064 -0.3495
H -3.0344 1.4455 -1.5944
H -2.0915 3.4571 -0.3153
H -1.7786 3.4872 -2.0857
H 0.1950 2.8875 0.1344
H 0.2593 4.2148 -1.0037
H 1.8996 2.3847 -1.6185
H 0.6258 2.6001 -2.8523
H -0.6891 -1.6191 -0.3827
H 0.0512 -3.0122 1.6730
H 1.4508 -3.5796 0.7166
H -1.6067 -3.6601 0.2274
H -0.6364 -5.0460 0.8180
H -1.1483 -5.2042 -1.6441
H 0.6320 -5.1222 -1.3041
H -1.1704 -2.7903 -2.2248
H 0.0614 -3.6525 -3.2135
H 0.9618 -1.6399 -2.4268
H 1.8586 -2.8863 -1.5649
H 0.9948 1.8473 1.6387
H -1.5553 1.5313 1.4683
H -1.0054 1.4938 3.0707
H -1.5982 -1.0225 1.4416
H -2.5805 -0.3782 2.7539
H -1.0403 -2.2692 3.5368
H -0.8739 -0.7316 4.4228
H 1.2818 -1.6554 2.3487
H 1.3737 -1.6030 4.0744
H 2.4105 0.2770 2.7690
H 1.0734 0.8627 3.8265
H 6.7629 1.6731 2.6280
H 5.2889 0.6326 2.7124
H 5.6317 3.1382 0.9377
H 4.6917 3.0443 2.4794
H 4.1469 2.1064 1.0390
H 8.5117 0.6257 1.0457
H 8.4526 -0.8707 -1.1757
H 6.1712 -2.5287 -2.0183
H 6.1675 -1.0267 -3.0262
H 3.9033 -1.9757 -1.1722
H 3.9029 -2.0920 -2.9689
H 3.8719 -0.4702 -2.2101
