75
 
P 0.9549 -0.0566 0.0690
N 0.1518 1.2701 0.9788
C -1.2841 1.5241 1.0226
C 0.8031 1.4994 2.2866
N 0.4002 0.2661 -1.5974
C 0.8674 1.5089 -2.2148
C 0.7327 -0.8839 -2.4552
N 0.4684 -1.5456 0.9614
C 0.8566 -1.6682 2.3660
C -0.9457 -1.9351 0.7733
Pd 3.4149 -0.0566 0.0690
P 5.8749 -0.0566 0.0690
C 6.5642 -1.7847 0.4229
C 6.0871 -2.7910 -0.6556
C 8.0917 -1.9114 0.5484
C 5.9032 -2.2743 1.7288
C 6.4138 0.5906 -1.6237
C 5.8562 2.0119 -1.7903
C 7.9556 0.7156 -1.7199
C 5.9086 -0.2420 -2.8131
C 6.2499 1.0023 1.4720
C 5.2066 1.5739 2.1783
C 5.4610 2.5599 3.1381
C 6.7840 3.0090 3.4243
N 7.0492 4.1006 4.3543
C 5.9928 4.8265 5.0534
C 8.3896 4.6170 4.6350
C 7.8312 2.3580 2.7249
C 7.5665 1.3791 1.7689
H -1.6932 1.6572 0.0057
H -1.4487 2.4948 1.5518
H -1.8155 0.7832 1.6357
H 1.8980 1.3087 2.2427
H 0.3551 0.8896 3.0850
H 0.6626 2.5454 2.6270
H 0.5534 2.3860 -1.6178
H 0.3667 1.6178 -3.2084
H 1.9640 1.4981 -2.3893
H 0.2604 -1.8113 -2.0693
H 1.8328 -1.0373 -2.5224
H 0.3277 -0.7376 -3.4819
H 1.9100 -1.3602 2.5139
H 0.7608 -2.7332 2.6725
H 0.1453 -1.1465 3.0313
H -1.2110 -2.0254 -0.2980
H -1.6488 -1.2482 1.2685
H -1.1370 -2.9306 1.2331
H 6.6316 -2.6918 -1.5992
H 4.9908 -2.7053 -0.8329
H 6.3029 -3.8392 -0.3570
H 8.5996 -1.7921 -0.4182
H 8.3604 -2.9428 0.8632
H 8.5111 -1.2152 1.2915
H 4.7937 -2.2762 1.6229
H 6.1763 -1.6500 2.6003
H 6.2063 -3.3247 1.9471
H 6.2573 2.6895 -1.0063
H 4.7489 2.0103 -1.7505
H 6.1706 2.4297 -2.7756
H 8.3689 1.3201 -0.8917
H 8.2668 1.2192 -2.6583
H 8.4605 -0.2572 -1.7473
H 4.8104 -0.3886 -2.7521
H 6.4218 -1.2020 -2.9148
H 6.1588 0.2669 -3.7695
H 4.1889 1.2806 1.9443
H 4.5820 2.9621 3.5990
H 4.9695 4.4941 4.8469
H 6.0295 5.9005 4.7693
H 6.1422 4.7387 6.1492
H 9.2175 4.1262 4.1095
H 8.6068 4.5265 5.7198
H 8.4435 5.6905 4.3495
H 8.8726 2.5945 2.8486
H 8.4117 0.9707 1.2392
