55
 
O -0.3280 -1.0820 0.0030
C 0.2516 -0.4434 0.9865
N 0.4902 0.8407 0.6476
C 0.0028 0.9537 -0.6071
C -0.4969 -0.2674 -1.0025
Pd -0.9157 -3.0459 0.0160
P -1.6210 -5.4026 0.0316
C -0.3203 -6.5081 0.8596
C -0.0572 -6.0349 2.3008
C -0.5482 -8.0346 0.8831
C 0.9975 -6.2587 0.0855
C -3.2833 -5.4268 0.9208
C -4.2532 -4.5664 0.0844
C -3.9005 -6.8481 0.9627
C -3.2517 -4.8632 2.3437
C -1.6327 -5.9266 -1.6813
C -1.3388 -5.0324 -2.6964
C -1.4814 -5.4272 -4.0333
C -1.9279 -6.7355 -4.3908
N -2.1974 -7.1141 -5.7714
C -2.0355 -6.1970 -6.8942
C -2.7602 -8.4082 -6.1582
C -2.1584 -7.6349 -3.3226
C -2.0257 -7.2288 -2.0029
H 0.5348 -0.8913 1.9294
H 0.0013 1.8663 -1.1881
H -0.9797 -0.5168 -1.9384
H -0.8656 -6.3270 2.9804
H 0.1055 -4.9337 2.3336
H 0.8467 -6.5293 2.7196
H -1.4277 -8.3299 1.4683
H 0.3131 -8.5306 1.3826
H -0.5781 -8.4799 -0.1247
H 1.2638 -5.1785 0.0912
H 0.9206 -6.5914 -0.9708
H 1.8455 -6.8138 0.5457
H -4.3495 -4.9668 -0.9500
H -3.9096 -3.5143 0.0268
H -5.2738 -4.5773 0.5316
H -4.0151 -7.2847 -0.0502
H -4.9193 -6.8281 1.4066
H -3.3250 -7.5347 1.5967
H -2.7999 -3.8521 2.3560
H -2.7303 -5.5283 3.0401
H -4.2868 -4.8035 2.7474
H -1.0446 -4.0153 -2.4450
H -1.2655 -4.6586 -4.7459
H -1.6395 -5.2061 -6.6468
H -3.0246 -6.0263 -7.3713
H -1.3448 -6.6371 -7.6421
H -2.9316 -9.1248 -5.3459
H -2.0918 -8.9096 -6.8887
H -3.7522 -8.2489 -6.6343
H -2.4813 -8.6535 -3.4439
H -2.2779 -7.9465 -1.2409
