96
 
P 1.0851 0.0297 -0.0433
C 0.1531 1.7080 0.2419
C 0.1896 2.5319 1.6034
C 1.5980 2.9963 2.0698
C 2.3414 3.7728 0.9750
C 2.2564 2.9961 -0.3254
C 0.7816 2.7354 -0.7075
C 0.7018 -0.5250 -1.8941
C 1.3018 0.2869 -3.0979
C 2.8229 0.1623 -3.1516
C 3.1928 -1.3102 -3.3546
C 2.6245 -2.1647 -2.2302
C 1.0992 -1.9984 -2.2652
C 0.4706 -1.0734 1.3834
C 1.0241 -2.5104 1.2498
C 2.5499 -2.5252 1.4566
C 2.8491 -2.0568 2.8822
C 2.2576 -0.6699 3.1293
C 0.7602 -0.6505 2.8494
Pd 3.5451 0.0297 -0.0433
P 6.0051 0.0297 -0.0433
C 6.7901 -1.1961 -1.1176
C 6.4613 -1.1164 -2.4731
C 6.7605 -2.1594 -3.3535
C 7.4313 -3.2940 -2.8896
C 7.6824 -4.4587 -3.8052
C 7.8386 -3.3450 -1.5463
C 7.5155 -2.3048 -0.6598
C 6.5310 1.5651 -0.8389
C 5.6108 2.5212 -1.2532
C 6.0210 3.6907 -1.9024
C 7.3835 3.9027 -2.1578
C 7.8497 5.0919 -2.9449
C 8.3195 2.9662 -1.6969
C 7.8955 1.8104 -1.0340
C 6.5108 -0.3752 1.6410
C 6.1560 -1.5709 2.2633
C 6.4407 -1.7708 3.6242
C 7.1159 -0.7837 4.3595
C 7.3261 -0.9186 5.8395
C 7.5638 0.3686 3.7052
C 7.2565 0.5739 2.3586
H -0.9166 1.5380 0.0051
H -0.3623 2.0646 2.4250
H -0.3906 3.4738 1.4407
H 2.1872 2.1112 2.3418
H 1.5344 3.6488 2.9718
H 3.4093 3.9189 1.2650
H 1.8975 4.7804 0.8153
H 2.7931 2.0411 -0.1476
H 2.7526 3.5707 -1.1341
H 0.7030 2.3645 -1.6812
H 0.2199 3.6940 -0.7627
H -0.4046 -0.5083 -1.9983
H 1.0147 1.3187 -3.2280
H 0.8907 -0.1177 -4.0520
H 3.2576 0.5603 -2.2149
H 3.2206 0.7577 -3.9995
H 4.2568 -1.4570 -3.3939
H 2.8246 -1.6613 -4.3440
H 3.0758 -1.8253 -1.2523
H 2.8969 -3.2269 -2.4329
H 0.5606 -2.7750 -1.7083
H 0.7712 -2.2367 -3.3163
H -0.6366 -1.1194 1.2773
H 0.7513 -2.9446 0.2897
H 0.5507 -3.1730 2.0143
H 3.0766 -1.8524 0.7302
H 2.9487 -3.5516 1.3089
H 3.9153 -1.9803 3.0324
H 2.4948 -2.8065 3.6223
H 2.7306 0.0365 2.4289
H 2.4744 -0.3476 4.1712
H 0.3549 0.3240 3.1004
H 0.2425 -1.3478 3.5558
H 5.8999 -0.2636 -2.8365
H 6.4254 -2.0979 -4.3840
H 7.2456 -4.2930 -4.8149
H 7.2053 -5.3703 -3.3823
H 8.7711 -4.6317 -3.9106
H 8.3590 -4.2167 -1.1739
H 7.7773 -2.4138 0.3783
H 4.5864 2.3419 -1.0821
H 5.2786 4.4122 -2.2258
H 7.0002 5.7265 -3.2762
H 8.3714 4.7242 -3.8559
H 8.5545 5.7070 -2.3498
H 9.3761 3.1206 -1.8694
H 8.6298 1.0929 -0.6947
H 5.6150 -2.3261 1.7079
H 6.1005 -2.6772 4.1105
H 6.8447 -1.8359 6.2400
H 6.8478 -0.0466 6.3403
H 8.4056 -0.9268 6.0901
H 8.1114 1.1286 4.2497
H 7.5754 1.4951 1.8899
