64
 
P 1.0572 -0.0719 0.0394
C 0.1693 -1.4325 1.0673
C 0.6721 -2.8373 0.6523
C 2.2150 -2.9538 0.8398
C 2.6240 -2.8033 2.3032
C 1.9868 -1.5504 2.8944
C 0.4743 -1.4392 2.6105
C 0.3900 1.5624 0.8089
C 0.6177 1.9582 2.3025
C 2.0998 2.1525 2.6315
C 2.7304 3.2060 1.7232
C 2.4273 2.9329 0.2494
C 0.9047 2.7950 0.0435
C 0.7678 -0.3882 -1.8836
C 1.3934 0.7218 -2.7960
C 2.9253 0.6689 -2.7930
C 3.4078 -0.6700 -3.3447
C 2.7847 -1.8141 -2.5522
C 1.2519 -1.7014 -2.5958
Pd 3.5172 -0.0719 0.0394
N 5.6172 -0.0719 0.0394
C 6.2607 1.0443 0.4741
C 7.6528 1.1286 0.3962
C 8.3714 0.0547 -0.1317
C 7.6934 -1.0881 -0.5640
C 6.2980 -1.1323 -0.4717
H -0.9296 -1.3561 0.9285
H 0.3664 -3.0398 -0.3701
H 0.1720 -3.6297 1.2623
H 2.7471 -2.1329 0.3187
H 2.5915 -3.9216 0.4461
H 3.7345 -2.6906 2.3507
H 2.3392 -3.7008 2.8862
H 2.4661 -0.7343 2.3742
H 2.2169 -1.4698 3.9810
H 0.0670 -0.5860 3.1195
H -0.0596 -2.2697 3.1294
H -0.7139 1.5117 0.6709
H 0.1214 1.3383 3.0363
H 0.0987 2.9265 2.4944
H 2.6410 1.2261 2.4870
H 2.2192 2.4449 3.6960
H 3.8295 3.2193 1.8794
H 2.3155 4.1966 1.9965
H 2.9639 2.0084 -0.0335
H 2.8042 3.7787 -0.3637
H 0.6072 2.7734 -0.9958
H 0.3902 3.7195 0.3978
H -0.3328 -0.3460 -2.0474
H 1.0580 1.7185 -2.5651
H 1.0594 0.6009 -3.8536
H 3.2913 0.7951 -1.7795
H 3.3558 1.4983 -3.3856
H 4.5131 -0.7377 -3.2739
H 3.1130 -0.7446 -4.4154
H 3.1797 -1.7227 -1.5140
H 3.0953 -2.7816 -3.0074
H 0.7566 -2.6315 -2.2911
H 0.9546 -1.6602 -3.6823
H 5.6871 1.8755 0.8604
H 8.1670 2.0218 0.7274
H 9.4496 0.1120 -0.2121
H 8.2432 -1.9223 -0.9799
H 5.7558 -1.9990 -0.8251
