68
 
P 1.0527 0.0620 0.0581
C 0.1988 1.0046 -1.2515
C -1.1800 0.9455 -1.4918
C -1.7392 1.6614 -2.5675
C -0.9322 2.4404 -3.4056
C 0.4397 2.5035 -3.1797
C 1.0010 1.7860 -2.1177
C 0.6274 -1.7117 -0.1443
C 1.0380 -2.4466 -1.2712
C 0.7006 -3.8057 -1.4046
C -0.0539 -4.4491 -0.4213
C -0.4697 -3.7381 0.7042
C -0.1308 -2.3803 0.8468
C 0.6712 1.1226 1.5006
C -0.1331 2.2803 1.4587
C -0.3926 3.0111 2.6276
C 0.1360 2.6009 3.8527
C 0.9011 1.4383 3.9206
C 1.1606 0.7006 2.7575
Pd 3.5127 0.0620 0.0581
C 5.6627 0.0620 0.0581
N 6.4134 1.1611 0.0558
C 5.8823 2.5258 0.0589
C 4.3055 2.4770 0.0553
C 6.3878 3.2479 1.3221
C 6.4144 3.2662 -1.1886
C 7.6945 0.7246 0.0491
C 7.6753 -0.6607 0.0479
N 6.3836 -1.0590 0.0548
C 5.8168 -2.4126 0.0725
C 6.3202 -3.1290 1.3388
C 4.2497 -2.3373 0.0838
C 6.2908 -3.1779 -1.1787
H -1.8134 0.3366 -0.8670
H -2.8008 1.6099 -2.7622
H -1.3655 2.9895 -4.2351
H 1.0677 3.1022 -3.8338
H 2.0696 1.8469 -1.9852
H 1.6232 -1.9771 -2.0468
H 1.0217 -4.3676 -2.2728
H -0.3158 -5.4979 -0.5316
H -1.0562 -4.2470 1.4629
H -0.4717 -1.8611 1.7328
H -0.5777 2.6307 0.5436
H -1.0084 3.9000 2.5858
H -0.0562 3.1772 4.7511
H 1.2901 1.1099 4.8784
H 1.7418 -0.2093 2.8490
H 3.8955 1.9607 0.9369
H 3.9187 1.9355 -0.8135
H 3.9133 3.5146 0.0368
H 6.0182 2.7311 2.2322
H 6.0456 4.3038 1.3417
H 7.5011 3.2499 1.3596
H 6.0859 2.7577 -2.1190
H 7.5291 3.2874 -1.1919
H 6.0634 4.3193 -1.2109
H 8.5750 1.3543 0.0455
H 8.5348 -1.3189 0.0460
H 6.0132 -2.5655 2.2459
H 7.4319 -3.1895 1.3389
H 5.9189 -4.1614 1.4009
H 3.8726 -1.7801 0.9564
H 3.8139 -3.3541 0.1237
H 3.8685 -1.8342 -0.8211
H 7.4011 -3.2451 -1.2085
H 5.9581 -2.6583 -2.1027
H 5.8847 -4.2115 -1.1857
