16
 
P 1.2232 0.0956 0.1495
F -0.3525 0.5173 -0.2062
F 0.9535 -1.5406 -0.1209
F 1.0895 0.6166 1.7423
Pt 3.6198 0.0146 0.1440
N 5.6287 -0.0066 0.0321
C 6.2846 1.1863 -0.0182
C 7.6775 1.2203 -0.1352
F 8.3340 2.4055 -0.2013
C 8.3860 0.0191 -0.1875
C 7.6974 -1.1943 -0.1173
C 6.3017 -1.1869 -0.0144
H 5.7217 2.1100 0.0257
H 9.4647 0.0279 -0.2827
H 8.2405 -2.1295 -0.1484
H 5.7534 -2.1176 0.0252
