41
 
P 1.2022 -0.4355 -0.6456
F -0.4025 -0.8267 -0.3882
F 0.8428 1.1536 -1.0571
F 1.3367 -1.5076 -1.9263
Pt 3.5780 -0.1641 -0.4549
P 5.9073 0.1367 -0.0318
C 6.6172 0.6840 1.5767
C 6.1543 -0.3185 2.6557
C 8.1436 0.7562 1.5526
C 5.9693 2.0376 1.9785
C 6.4978 -1.5764 -0.2790
C 7.7524 -1.7990 -0.8902
C 8.1714 -3.0948 -1.2252
C 7.3569 -4.1884 -0.9335
C 6.1246 -3.9872 -0.2993
C 5.6844 -2.6839 0.0124
C 6.3092 1.2923 -1.3934
C 6.9891 2.5118 -1.2046
C 7.2362 3.3789 -2.2604
C 6.8472 3.0390 -3.5483
C 6.2335 1.8069 -3.7832
C 5.9625 0.9363 -2.7140
H 6.5578 -1.3349 2.4783
H 5.0411 -0.3859 2.6749
H 6.4852 0.0147 3.6635
H 8.5708 -0.2447 1.3463
H 8.5165 1.1245 2.5300
H 8.5157 1.4361 0.7720
H 4.8588 1.9680 1.9273
H 6.2376 2.9029 1.3702
H 6.2519 2.3196 3.0124
H 8.4002 -0.9699 -1.1426
H 9.1208 -3.2533 -1.7276
H 7.6792 -5.1886 -1.2099
H 5.5053 -4.8470 -0.0758
H 4.7080 -2.5285 0.4610
H 7.3532 2.8503 -0.2701
H 7.7331 4.3204 -2.0650
H 7.0372 3.7308 -4.3578
H 5.9634 1.5366 -4.7956
H 5.4866 -0.0138 -2.9268
