50
 
P 1.0559 0.0418 0.0716
C 0.4141 1.3234 -1.0725
C -0.9267 1.5464 -1.4426
C -1.2313 2.4762 -2.4658
C -0.2145 3.1815 -3.1226
F -0.5104 4.0496 -4.1267
C 1.1115 2.9775 -2.7554
C 1.4212 2.0616 -1.7423
C 0.7396 -1.5890 -0.6310
C 1.8282 -2.4187 -0.9211
C 1.5882 -3.6968 -1.4793
C 0.2752 -4.1402 -1.7197
F 0.0458 -5.3729 -2.2453
C -0.8061 -3.3170 -1.4057
C -0.5781 -2.0442 -0.8683
C 0.4312 0.3912 1.7456
C -0.3592 -0.6166 2.3411
C -0.9031 -0.4586 3.6165
C -0.6623 0.7110 4.3302
F -1.2013 0.8657 5.5669
C 0.1360 1.7164 3.7686
C 0.6856 1.5630 2.4778
Pt 3.5159 0.0418 0.0716
N 5.6159 0.0418 0.0716
C 6.3280 0.8079 -0.8098
O 5.6598 1.5418 -1.7390
C 6.2567 2.1948 -2.8049
C 7.7368 0.6837 -0.8430
C 8.3798 -0.1681 0.0512
C 7.6286 -0.9225 0.9454
C 6.2362 -0.8366 0.9070
H -1.7310 0.9937 -0.9856
H -2.2551 2.6418 -2.7772
H 1.9018 3.5143 -3.2730
H 2.4694 1.9036 -1.5058
H 2.8442 -2.0427 -0.6840
H 2.4074 -4.3598 -1.7222
H -1.8204 -3.6696 -1.5780
H -1.4364 -1.4290 -0.6302
H -0.5664 -1.5414 1.8218
H -1.5129 -1.2455 4.0492
H 0.3230 2.6144 4.3419
H 1.3008 2.3491 2.0657
H 5.4789 2.6162 -3.4730
H 6.8728 1.4904 -3.4131
H 6.8996 3.0145 -2.4258
H 8.3422 1.2125 -1.5671
H 9.4589 -0.2574 0.0361
H 8.1210 -1.5772 1.6529
H 5.6442 -1.4219 1.5978
