81
 
P 0.9179 -0.0389 -0.0417
C 0.0792 1.5568 0.2897
C -1.3266 1.8426 0.2826
C -2.3515 0.9293 -0.2497
C -1.8084 3.0625 0.7502
C -0.9305 4.0471 1.1845
C -1.4690 5.3289 1.7525
C 0.4546 3.8338 1.0809
C 0.9841 2.5994 0.6301
C 2.5222 2.3946 0.5527
C 0.4073 -0.4973 -1.8493
C 1.1743 0.0395 -2.9409
C 2.4986 0.6890 -2.8277
C 0.7757 -0.0684 -4.2732
C -0.3538 -0.7486 -4.6395
C -0.7102 -0.8397 -6.0973
C -1.1031 -1.3754 -3.6550
C -0.7657 -1.2971 -2.2732
C -1.7311 -2.1256 -1.4021
C 0.6494 -1.2018 1.3995
C 0.6108 -2.6258 1.2043
C 1.1000 -3.3559 -0.0230
C 0.1560 -3.4734 2.2225
C -0.1942 -2.9899 3.4716
C -0.7349 -3.9231 4.5193
C 0.0226 -1.6467 3.7540
C 0.4691 -0.7445 2.7624
C 0.8128 0.6457 3.2708
Pt 3.3779 -0.0389 -0.0417
N 5.4779 -0.0389 -0.0417
C 6.2647 -1.1501 -0.3309
N 5.6643 -2.3927 -0.7363
C 4.2338 -2.4370 -0.9203
C 6.3924 -3.6592 -0.9217
C 7.6730 -1.0417 -0.2056
C 8.2535 0.1446 0.2083
C 7.4516 1.2417 0.4773
C 6.0633 1.1351 0.3367
H -1.7727 0.1812 -0.6864
H -2.9052 1.3926 -1.0986
H -3.0599 0.5378 0.5069
H -2.8823 3.2401 0.7725
H -2.5819 5.3285 1.7999
H -1.1380 6.1849 1.1342
H -1.0925 5.4526 2.7910
H 1.1155 4.6317 1.3883
H 3.0212 3.3466 0.8325
H 2.9041 2.0908 -0.4226
H 2.8809 1.5954 1.1929
H 2.9223 0.5242 -1.8683
H 2.4504 1.7590 -3.0974
H 3.1947 0.1524 -3.5153
H 1.3845 0.3749 -5.0558
H 0.0287 -0.2987 -6.7323
H -1.7065 -0.3896 -6.2848
H -0.7004 -1.9035 -6.4072
H -1.9737 -1.9308 -3.9901
H -2.4379 -2.7180 -2.0222
H -2.4110 -1.6596 -0.6770
H -1.1960 -2.8577 -0.8322
H 1.4853 -2.6836 -0.8058
H 0.3613 -4.0732 -0.4213
H 1.9370 -4.0206 0.2857
H 0.0751 -4.5382 2.0361
H -0.8592 -4.9537 4.1201
H -1.7360 -3.5785 4.8620
H -0.0411 -3.9590 5.3812
H -0.1687 -1.3045 4.7666
H 0.7898 0.6834 4.3862
H 0.1750 1.4716 2.9201
H 1.8778 0.8462 3.0328
H 3.8464 -1.5023 -1.3026
H 3.7822 -2.8301 -0.0021
H 4.0202 -3.1057 -1.7844
H 7.4851 -3.6312 -0.7719
H 6.2397 -4.0482 -1.9524
H 6.0090 -4.4170 -0.2074
H 8.3600 -1.8439 -0.4072
H 9.3313 0.2031 0.3204
H 7.9115 2.1641 0.8056
H 5.4463 1.9903 0.5685
