52
 
P 0.9541 -0.0067 0.0886
C 0.3061 -1.5937 -0.5777
C -1.0531 -1.8993 -0.7572
C -1.4392 -3.1436 -1.2989
C -0.4804 -4.0943 -1.6687
Cl -0.9725 -5.6555 -2.3164
C 0.8728 -3.7990 -1.5191
C 1.2636 -2.5617 -0.9829
C 0.3467 -0.2681 1.7957
C 0.7178 -1.3173 2.6554
C 0.1335 -1.4181 3.9373
C -0.8162 -0.4821 4.3688
Cl -1.5826 -0.6386 5.9438
C -1.1629 0.5789 3.5379
C -0.5833 0.6870 2.2715
C 0.5347 1.5093 -0.8120
C -0.8122 1.8532 -1.0825
C -1.1266 3.0344 -1.7678
C -0.1061 3.8964 -2.1710
Cl -0.5129 5.3593 -3.0636
C 1.2319 3.5865 -1.8651
C 1.5615 2.3866 -1.1870
Pt 3.4141 -0.0067 0.0886
C 5.5641 -0.0067 0.0886
N 6.2575 -0.9935 0.4973
C 5.6820 -2.1855 1.0662
C 7.6750 -0.7298 0.3610
C 7.7184 0.5503 -0.4937
N 6.3715 1.0413 -0.3819
C 5.9335 2.3783 -0.6972
H -1.8138 -1.1856 -0.4908
H -2.4869 -3.3772 -1.4341
H 1.6180 -4.5322 -1.8185
H 2.3268 -2.3696 -0.8876
H 1.4446 -2.0530 2.3483
H 0.4056 -2.2285 4.6002
H -1.8900 1.3157 3.8675
H -0.8869 1.5238 1.6574
H -1.6299 1.2167 -0.7697
H -2.1627 3.2824 -1.9883
H 2.0047 4.2825 -2.1631
H 2.6052 2.1068 -0.9256
H 4.5585 -2.1109 1.0608
H 6.0511 -2.3088 2.1079
H 6.0084 -3.0658 0.4716
H 8.2391 -1.5503 -0.1312
H 8.0790 -0.5353 1.3793
H 7.8719 0.2902 -1.5667
H 8.4996 1.2602 -0.1509
H 6.7942 2.9896 -1.0471
H 5.5360 2.8499 0.2279
H 5.1455 2.3629 -1.4748
