48
 
P 1.0967 -0.0221 -0.0125
C 0.3487 -0.5695 1.5854
C -1.1691 -0.5636 1.6739
C 0.9146 -1.9563 1.9359
C 0.5484 1.7050 -0.3031
C 1.0416 2.6948 0.7449
C 0.9861 2.1444 -1.7061
C 0.6270 -1.3264 -1.1920
Pt 3.5567 -0.0221 -0.0125
P 6.0167 -0.0221 -0.0125
C 6.9124 0.1465 -1.5909
C 6.4930 1.5174 0.8227
C 6.5398 -1.6480 0.6622
C 6.0149 -2.7909 -0.2080
C 8.0829 -1.6963 0.7376
C 5.9781 -1.7805 2.0882
H 0.7330 0.1198 2.3690
H -1.6171 -1.2174 0.9025
H -1.5526 0.4721 1.5878
H -1.4641 -0.9456 2.6789
H 0.5537 -2.7309 1.2305
H 0.6089 -2.2591 2.9592
H 2.0286 -1.9389 1.9076
H -0.5630 1.6983 -0.2848
H 2.1450 2.8037 0.6964
H 0.7349 2.3758 1.7596
H 0.5729 3.6856 0.5487
H 2.0941 2.1382 -1.7934
H 0.6109 3.1662 -1.9299
H 0.5657 1.4600 -2.4755
H -0.4833 -1.3664 -1.2426
H 1.0324 -2.3173 -0.9250
H 0.9940 -1.0403 -2.1994
H 6.5496 1.0781 -2.0796
H 6.5834 -0.6802 -2.2595
H 8.0093 0.1717 -1.5107
H 6.1097 2.4119 0.2995
H 7.6045 1.5541 0.8710
H 6.1153 1.4858 1.8663
H 6.4240 -2.7257 -1.2362
H 4.9045 -2.7525 -0.2524
H 6.3280 -3.7682 0.2195
H 8.5445 -1.6121 -0.2667
H 8.4315 -2.6537 1.1780
H 8.4751 -0.8662 1.3669
H 4.8683 -1.7353 2.0797
H 6.3566 -0.9607 2.7390
H 6.2923 -2.7441 2.5454
