49
 
P 0.9526 0.0880 0.0023
C 0.2198 1.6275 0.6638
C -1.0809 1.7755 1.1895
C -1.4575 2.9813 1.8182
C -0.5514 4.0421 1.9310
Cl -1.0236 5.5394 2.7238
C 0.7407 3.8995 1.4296
C 1.1225 2.7024 0.8139
C 0.5324 0.2149 -1.7429
C 1.5447 0.2001 -2.7054
C 1.2219 0.1637 -4.0674
C -0.1158 0.1320 -4.4776
Cl -0.5092 0.1008 -6.1883
C -1.1355 0.1112 -3.5216
C -0.8152 0.1478 -2.1578
C 0.5100 -1.3632 0.9991
C -0.8436 -1.7483 1.0822
C -1.2303 -2.8807 1.8056
C -0.2675 -3.6538 2.4541
Cl -0.7645 -5.0647 3.3805
C 1.0883 -3.3031 2.3554
C 1.4860 -2.1606 1.6221
Pt 3.4126 0.0880 0.0023
N 5.5126 0.0880 0.0023
C 6.1582 1.0591 -0.6711
C 5.3180 2.1039 -1.3209
C 7.5613 1.0297 -0.7522
C 8.2561 -0.0249 -0.1413
C 7.5528 -1.0152 0.5490
C 6.1628 -0.9347 0.6153
H -1.7975 0.9733 1.1647
H -2.4484 3.0929 2.2410
H 1.4559 4.7092 1.5339
H 2.1448 2.6094 0.4657
H 2.5816 0.1832 -2.3995
H 2.0131 0.1447 -4.8040
H -2.1722 0.0517 -3.8369
H -1.6217 0.0916 -1.4371
H -1.6108 -1.1852 0.5735
H -2.2791 -3.1578 1.8579
H 1.8235 -3.9268 2.8481
H 2.5444 -1.8913 1.5225
H 4.2239 1.8628 -1.1371
H 5.5292 2.1104 -2.4112
H 5.5759 3.0965 -0.8949
H 8.1081 1.7905 -1.2933
H 9.3352 -0.0844 -0.2082
H 8.0735 -1.8430 1.0149
H 5.5924 -1.7007 1.1252
