55
 
P 0.9391 0.0552 -0.0569
C 0.0644 -0.0232 1.5488
C -1.3130 0.1474 1.6862
C -1.9203 0.0938 2.9580
C -3.3832 0.3683 3.0993
C -1.1524 -0.1876 4.1001
C 0.2202 -0.3914 3.9777
C 0.8295 -0.2936 2.7165
C 0.4409 1.7232 -0.6141
C 0.7536 2.8786 0.0974
C 0.2185 4.1229 -0.2910
C 0.4060 5.3152 0.5929
C -0.5583 4.2302 -1.4571
C -0.8173 3.0947 -2.2234
C -0.3385 1.8448 -1.7975
C 0.6174 -1.5441 -0.8737
C -0.7009 -1.9636 -1.1798
C -0.9439 -3.1925 -1.8289
C -2.3486 -3.6671 -2.1063
C 0.1394 -3.9969 -2.2007
C 1.4522 -3.5852 -1.9144
C 1.7035 -2.3576 -1.2469
Pt 3.3991 0.0552 -0.0569
N 5.4991 0.0552 -0.0569
C 6.1424 -1.0216 -0.5822
C 7.5350 -1.1149 -0.5041
Cl 8.3676 -2.5233 -1.1370
C 8.2528 -0.0865 0.1113
C 7.5740 1.0192 0.6297
C 6.1794 1.0729 0.5352
H -1.9074 0.3483 0.8115
H -3.8440 0.5612 2.1087
H -3.5095 1.2806 3.7204
H -3.9054 -0.4835 3.5812
H -1.6148 -0.2444 5.0828
H 0.8077 -0.6157 4.8659
H 1.9024 -0.4477 2.6656
H 1.3653 2.8009 0.9804
H 1.0210 5.0551 1.4794
H -0.5989 5.6095 0.9658
H 0.8660 6.1724 0.0620
H -0.9783 5.1862 -1.7605
H -1.4233 3.1841 -3.1233
H -0.6033 0.9765 -2.3924
H -1.5460 -1.3437 -0.9136
H -3.1048 -2.9140 -1.7994
H -2.5305 -4.5932 -1.5188
H -2.4992 -3.8971 -3.1845
H -0.0405 -4.9422 -2.7142
H 2.2631 -4.2362 -2.2179
H 2.7326 -2.0032 -1.0118
H 5.5646 -1.8157 -1.0373
H 9.3305 -0.1484 0.1966
H 8.1223 1.8149 1.1170
H 5.6365 1.9049 0.9632
