75
 
P 0.9693 -0.0681 -0.0665
C 0.2184 1.2748 0.8984
C -1.1552 1.5333 0.8895
C -1.6734 2.6360 1.5761
C -0.8264 3.4989 2.2770
F -1.3394 4.5744 2.9260
C 0.5489 3.2616 2.2920
C 1.0730 2.1579 1.6029
C 0.2646 0.3553 -1.7075
C 0.6451 1.5206 -2.3970
C -0.0521 1.9300 -3.5481
C -1.1332 1.1841 -4.0238
F -1.8520 1.6252 -5.0897
C -1.4836 -0.0071 -3.3882
C -0.7845 -0.4285 -2.2437
C 0.5230 -1.4075 1.0768
C -0.8325 -1.7181 1.3421
C -1.1738 -2.7801 2.1865
C -0.1715 -3.5591 2.7620
F -0.5012 -4.5826 3.5899
C 1.1705 -3.2913 2.4708
C 1.5174 -2.2229 1.6289
Pt 3.4293 -0.0681 -0.0665
C 5.5793 -0.0681 -0.0665
N 6.3538 -1.1770 -0.0913
C 5.8581 -2.5536 -0.1470
C 4.8612 -2.7720 -1.2964
C 5.4701 -2.5922 -2.6889
C 4.4051 -2.8505 -3.7551
C 7.6283 -0.7150 -0.0664
C 7.6043 0.6582 0.0157
C 8.7795 1.4174 0.0429
C 10.0068 0.7326 -0.0137
C 10.0375 -0.6766 -0.0827
C 8.8398 -1.4202 -0.1082
N 6.3213 1.0797 0.0375
C 5.8288 2.4755 0.1124
C 6.1147 3.2393 1.4245
C 6.7053 4.5124 1.3057
C 7.0520 5.2709 2.4232
C 6.7966 4.7904 3.7030
C 6.1462 3.5623 3.8637
C 5.7965 2.7834 2.7337
H -1.8230 0.9080 0.3241
H -2.7356 2.8295 1.5480
H 1.2045 3.9427 2.8266
H 2.1488 2.0108 1.6134
H 1.4511 2.1363 -2.0277
H 0.2194 2.8471 -4.0560
H -2.3219 -0.5829 -3.7676
H -1.1083 -1.3382 -1.7555
H -1.6415 -1.1657 0.8932
H -2.2162 -3.0050 2.3890
H 1.9423 -3.9171 2.8964
H 2.5578 -2.0373 1.3967
H 5.3120 -2.7551 0.7981
H 6.6958 -3.2774 -0.2232
H 4.0057 -2.0717 -1.1793
H 4.4678 -3.8084 -1.2132
H 6.3069 -3.3107 -2.8276
H 5.8599 -1.5582 -2.8083
H 4.0048 -3.8830 -3.6566
H 4.8410 -2.7342 -4.7686
H 3.5658 -2.1301 -3.6420
H 8.7594 2.4979 0.0922
H 10.9364 1.2899 -0.0064
H 10.9935 -1.1857 -0.1207
H 8.8784 -2.4989 -0.1673
H 4.7472 2.5191 -0.1197
H 6.3363 3.0217 -0.7120
H 6.8983 4.9317 0.3300
H 7.5275 6.2336 2.2867
H 7.0963 5.3820 4.5629
H 5.9296 3.2236 4.8727
H 5.3031 1.8339 2.9005
