24
 
P 1.1592 -0.2570 -0.2438
Cl -0.5477 -1.0652 0.5746
Cl 0.6433 1.7545 -0.0688
Cl 0.9361 -1.0977 -2.1454
Pt 3.5321 -0.1412 -0.1832
N 5.5277 -0.1031 -0.0142
C 6.3601 0.9489 0.0359
N 7.6537 0.5404 0.0732
C 8.8493 1.3561 0.0488
C 8.7704 2.7622 -0.0242
C 9.9312 3.5323 -0.1535
C 11.1839 2.9182 -0.1795
C 11.2823 1.5335 -0.0590
C 10.1282 0.7569 0.0445
C 7.6046 -0.8129 0.0643
C 6.2916 -1.2051 0.0194
H 6.0191 1.9730 0.0134
H 7.8198 3.2742 -0.0055
H 9.8598 4.6079 -0.2441
H 12.0791 3.5146 -0.2925
H 12.2533 1.0550 -0.0622
H 10.2546 -0.3125 0.1053
H 8.4477 -1.4874 0.0613
H 5.9221 -2.2219 -0.0142
