83
 
P 1.0179 0.0472 0.0863
C 0.1812 0.6657 -1.3993
C -1.2048 0.7505 -1.5818
C -1.7313 1.1047 -2.8362
C -3.2085 1.1176 -3.0637
C -0.8697 1.4167 -3.8973
C 0.5086 1.4100 -3.7013
C 1.0307 1.0377 -2.4614
C 0.5430 -1.6892 -0.1609
C 1.4792 -2.7234 -0.3113
C 1.0343 -4.0701 -0.4175
C 1.9566 -5.2471 -0.5416
C -0.3338 -4.3565 -0.3704
C -1.2554 -3.3425 -0.1726
C -0.8222 -2.0279 -0.0579
C 0.4260 0.8812 1.5779
C -0.4395 1.9837 1.6022
C -0.8656 2.5163 2.8411
C -1.7874 3.6922 2.9069
C -0.4237 1.9432 4.0436
C 0.3953 0.8214 4.0191
C 0.7907 0.2823 2.7957
Pt 3.4779 0.0472 0.0863
C 5.6279 0.0472 0.0863
N 6.4041 -1.0005 -0.2510
C 5.8960 -2.3020 -0.6224
C 4.9923 -2.1462 -1.8454
C 4.4335 -3.4862 -2.3144
C 5.4719 -4.5745 -2.6049
C 7.6828 -0.5765 -0.1028
C 7.6621 0.7316 0.2952
C 8.8349 1.4684 0.4893
C 10.0608 0.8136 0.2953
C 10.0916 -0.5456 -0.0822
C 8.8930 -1.2601 -0.2918
N 6.3815 1.1280 0.4294
C 5.9219 2.4837 0.7395
C 4.6561 2.4631 1.5602
C 4.9063 1.6628 2.8480
C 3.6386 1.5488 3.6291
H -1.8795 0.5245 -0.7780
H -3.7640 0.9131 -2.1247
H -3.4581 0.3252 -3.8007
H -3.5244 2.1039 -3.4612
H -1.2666 1.6725 -4.8728
H 1.1721 1.6692 -4.5187
H 2.1090 1.0124 -2.3444
H 2.5265 -2.4640 -0.3236
H 2.9756 -5.0365 -0.1849
H 1.9211 -5.6346 -1.5852
H 1.6445 -6.0489 0.1536
H -0.6833 -5.3792 -0.4424
H -2.3083 -3.5799 -0.0838
H -1.5736 -1.2910 0.1493
H -0.7868 2.4190 0.6778
H -2.1020 4.0161 1.8944
H -1.2651 4.5309 3.4115
H -2.6953 3.4275 3.4927
H -0.7281 2.3531 5.0005
H 0.7276 0.3695 4.9474
H 1.4207 -0.6019 2.8038
H 5.3076 -2.7149 0.2282
H 6.7491 -2.9784 -0.8149
H 5.5819 -1.7056 -2.6775
H 4.1295 -1.4598 -1.5430
H 3.7836 -3.3378 -3.2002
H 3.8167 -3.8303 -1.5129
H 6.1459 -4.2513 -3.4217
H 4.9548 -5.5127 -2.8980
H 6.0694 -4.8259 -1.7033
H 8.8172 2.5091 0.7810
H 10.9862 1.3574 0.4412
H 11.0479 -1.0354 -0.2163
H 8.9309 -2.2987 -0.5884
H 5.7254 3.0268 -0.2094
H 6.6980 3.0346 1.3078
H 3.8484 2.1007 0.9204
H 4.3444 3.4968 1.8043
H 5.6821 2.1689 3.4544
H 5.2461 0.6232 2.6348
H 3.1914 2.5450 3.8244
H 3.7950 0.9945 4.5769
H 3.0098 0.9634 2.9673
