58
 
P 1.0642 0.0395 -0.0657
C 0.3637 -1.4495 -0.8631
C -1.0035 -1.7086 -1.0217
C -1.4334 -2.9215 -1.5904
C -0.5074 -3.8895 -2.0153
C -0.9621 -5.2392 -2.5026
C 0.8584 -3.6050 -1.9357
C 1.2895 -2.3995 -1.3652
C 0.5142 -0.3816 1.6185
C 0.8580 -1.5416 2.3262
C 0.2712 -1.7946 3.5828
C -0.6472 -0.8903 4.1490
C -1.3599 -1.2005 5.4375
C -0.9262 0.3029 3.4803
C -0.3538 0.5505 2.2321
C 0.5885 1.6192 -0.8003
C -0.7735 1.9478 -0.9709
C -1.1475 3.1504 -1.5760
C -0.1695 4.0594 -1.9954
C -0.5711 5.3011 -2.7488
C 1.1887 3.7771 -1.7375
C 1.5717 2.5516 -1.1479
Pt 3.5242 0.0395 -0.0657
N 5.6242 0.0395 -0.0657
C 6.2875 1.1188 -0.5503
N 7.6393 1.0891 -0.6635
C 8.3539 -0.0091 -0.2898
O 9.6982 -0.0467 -0.4497
C 10.4177 0.9604 -1.0607
C 7.6851 -1.1159 0.2434
C 6.2939 -1.0668 0.3461
H -1.7397 -0.9959 -0.6942
H -2.4928 -3.1190 -1.6782
H -2.0634 -5.3515 -2.4117
H -0.4991 -6.0152 -1.8525
H -0.6607 -5.4305 -3.5533
H 1.5860 -4.3348 -2.2832
H 2.3592 -2.2307 -1.2943
H 1.5484 -2.2581 1.9077
H 0.5134 -2.7070 4.1097
H -1.1145 -2.2212 5.7981
H -2.4590 -1.1686 5.2594
H -1.1075 -0.4634 6.2271
H -1.6156 1.0266 3.9068
H -0.6239 1.4734 1.7358
H -1.5593 1.2762 -0.6538
H -2.2008 3.3669 -1.7305
H -1.6622 5.3120 -2.9726
H -0.0452 5.3013 -3.7286
H -0.3108 6.2246 -2.1947
H 1.9447 4.4962 -2.0245
H 2.6263 2.2982 -0.9555
H 5.7357 1.9885 -0.8790
H 11.4947 0.6960 -1.0657
H 10.2833 1.9145 -0.5087
H 10.0805 1.0899 -2.1130
H 8.2246 -2.0049 0.5458
H 5.7409 -1.9183 0.7210
