61
 
P 1.0570 -0.0801 0.0181
C 0.2879 -0.6860 1.5330
C -1.0817 -0.6314 1.7735
C -1.6017 -1.0897 2.9950
C -3.0603 -0.9524 3.2802
C -0.7477 -1.6460 3.9623
C 0.6225 -1.7262 3.7184
C 1.1409 -1.2366 2.5155
C 0.4327 1.6004 0.1015
C 0.7809 2.4933 1.1072
C 0.1712 3.7600 1.1559
C 0.4770 4.6949 2.2770
C -0.7609 4.1361 0.1722
C -1.0797 3.2564 -0.8600
C -0.4883 1.9930 -0.8946
C 0.6737 -1.3406 -1.1865
C -0.6626 -1.6743 -1.4870
C -0.9584 -2.6823 -2.4153
C -2.3877 -3.0954 -2.6740
C 0.0986 -3.3222 -3.0780
C 1.4335 -2.9567 -2.8087
C 1.7293 -1.9638 -1.8471
Pt 3.5170 -0.0801 0.0181
N 5.6170 -0.0801 0.0181
C 6.2522 0.7894 0.8276
C 5.4086 1.7744 1.5623
C 7.6495 0.7233 0.9542
C 8.3515 -0.2587 0.2417
C 7.6663 -1.1223 -0.6152
C 6.2766 -1.0057 -0.7289
C 5.4989 -1.8828 -1.6571
H -1.7343 -0.2056 1.0291
H -3.5901 -0.4926 2.4196
H -3.1806 -0.2833 4.1579
H -3.5113 -1.9415 3.4977
H -1.1407 -2.0079 4.9062
H 1.2811 -2.1557 4.4675
H 2.2126 -1.2972 2.3539
H 1.4964 2.1892 1.8570
H 1.2432 4.2640 2.9546
H -0.4559 4.8523 2.8574
H 0.8421 5.6668 1.8864
H -1.2446 5.1059 0.2073
H -1.8002 3.5459 -1.6192
H -0.7726 1.3156 -1.6932
H -1.4776 -1.1659 -0.9930
H -3.1097 -2.4709 -2.1030
H -2.5216 -4.1472 -2.3415
H -2.6481 -3.0276 -3.7519
H -0.1191 -4.1021 -3.8020
H 2.2268 -3.4610 -3.3435
H 2.7581 -1.6391 -1.5740
H 4.3185 1.5740 1.3342
H 5.6852 2.7969 1.2264
H 5.5927 1.6869 2.6525
H 8.1854 1.3983 1.6081
H 9.4253 -0.3511 0.3450
H 8.2078 -1.8754 -1.1758
H 6.1580 -2.5924 -2.2017
H 4.9963 -1.2394 -2.4123
H 4.7374 -2.4530 -1.0919
