40
 
P 0.9317 0.0200 -0.0703
C 0.0217 0.9146 1.2233
C 0.4655 1.1689 -1.3961
C 0.4328 -1.6821 0.0632
C -0.9259 -2.0099 -0.0792
C -1.3427 -3.3373 0.0262
C -0.4027 -4.3397 0.2761
C 0.9591 -4.0152 0.3915
C 1.3854 -2.6803 0.2736
Pt 3.3917 0.0200 -0.0703
N 5.4917 0.0200 -0.0703
C 6.3260 1.0677 -0.0897
N 7.6160 0.6561 -0.0634
C 8.8040 1.4785 -0.0939
C 8.7123 2.8851 -0.1496
C 9.8656 3.6692 -0.2319
C 11.1238 3.0664 -0.2544
C 11.2327 1.6784 -0.1794
C 10.0855 0.8891 -0.0975
C 7.5630 -0.6978 -0.0278
C 6.2465 -1.0849 -0.0301
H -1.0747 0.8714 1.1302
H 0.3934 1.9627 1.2661
H 0.3320 0.4486 2.1887
H -0.6481 1.1841 -1.4553
H 0.8175 0.7261 -2.3537
H 0.8621 2.1897 -1.2704
H -1.6618 -1.2393 -0.2806
H -2.3928 -3.5861 -0.0829
H -0.7329 -5.3670 0.3721
H 1.6770 -4.8025 0.5724
H 2.4437 -2.3983 0.3462
H 5.9850 2.0923 -0.1167
H 7.7578 3.3900 -0.1418
H 9.7813 4.7466 -0.2871
H 12.0149 3.6740 -0.3306
H 12.2069 1.2078 -0.1935
H 10.2166 -0.1809 -0.0497
H 8.4032 -1.3755 -0.0056
H 5.8610 -2.0956 -0.0095
