39
 
P 1.0957 -0.2166 -0.0228
Cl -0.3800 -1.2679 -1.0202
Cl 0.5578 -0.8357 1.8896
Cl 0.4990 1.6896 -0.6270
Pt 3.4649 0.0079 0.3200
P 5.8270 -0.0339 0.0151
C 6.5287 -0.5726 -1.5709
C 6.2224 0.1699 -2.7326
C 6.4841 -0.3611 -4.0046
C 7.0722 -1.6211 -4.1280
F 7.2680 -2.1655 -5.3553
C 7.4273 -2.3372 -2.9840
C 7.1497 -1.8232 -1.7140
C 6.3619 1.6621 0.2683
C 5.4265 2.6925 0.4062
C 5.8736 4.0142 0.5765
C 7.2448 4.2964 0.6536
F 7.6743 5.5755 0.7930
C 8.1738 3.2580 0.5878
C 7.7356 1.9486 0.3833
C 6.3247 -1.2416 1.2692
C 5.3848 -1.8979 2.0802
C 5.8322 -2.7227 3.1331
C 7.2038 -2.9135 3.3540
F 7.6344 -3.6958 4.3763
C 8.1337 -2.2906 2.5236
C 7.6970 -1.4512 1.5001
H 5.7231 1.1301 -2.6670
H 6.1940 0.1816 -4.8975
H 7.8728 -3.3181 -3.0784
H 7.3576 -2.4490 -0.8651
H 4.3614 2.4614 0.3671
H 5.1617 4.8243 0.6459
H 9.2341 3.4671 0.6829
H 8.4768 1.1669 0.3209
H 4.3187 -1.7453 1.9107
H 5.1234 -3.2083 3.7911
H 9.1958 -2.4399 2.6803
H 8.4399 -0.9581 0.8929
