61
 
P 0.9395 0.0741 -0.0292
C 0.1582 -0.9760 -1.2793
C -1.2201 -1.1285 -1.4685
C -1.7016 -2.0908 -2.3590
C -0.8163 -2.8846 -3.1028
C -1.3315 -4.0042 -3.9566
C 0.5604 -2.6494 -3.0097
C 1.0423 -1.7040 -2.1011
C 0.4678 -1.0098 1.3442
C 1.4096 -1.6192 2.1793
C 0.9788 -2.4191 3.2532
C -0.3941 -2.6123 3.4991
C -0.8809 -3.5124 4.5941
C -1.3289 -1.9557 2.7014
C -0.9009 -1.1573 1.6512
C 0.3820 1.7760 -0.1215
C -0.4179 2.2548 0.9299
C -0.9521 3.5409 0.8890
C -0.6853 4.3748 -0.2033
C -1.3118 5.7361 -0.2856
C 0.1532 3.9139 -1.2348
C 0.6834 2.6147 -1.1967
Pt 3.3995 0.0741 -0.0292
C 5.5495 0.0741 -0.0292
N 6.2403 -0.9943 -0.0634
C 5.6593 -2.3125 -0.0351
C 7.6580 -0.7000 -0.0769
C 7.7034 0.8186 -0.3307
N 6.3577 1.2226 -0.0262
C 5.9178 2.5751 0.2131
H -1.9342 -0.5425 -0.9235
H -2.7694 -2.2348 -2.4436
H -2.4329 -4.1087 -3.8559
H -0.8770 -4.9535 -3.5947
H -1.0705 -3.8585 -5.0231
H 1.2607 -3.2280 -3.6034
H 2.1167 -1.5705 -2.0133
H 2.4670 -1.4691 2.0082
H 1.7124 -2.8901 3.8920
H -0.0354 -4.0009 5.1189
H -1.5150 -4.3075 4.1437
H -1.4897 -2.9447 5.3292
H -2.3934 -2.0590 2.8872
H -1.6638 -0.6460 1.0996
H -0.6539 1.6270 1.7798
H -1.5867 3.8756 1.7021
H -1.9875 5.9287 0.5766
H -1.9233 5.7925 -1.2113
H -0.5329 6.5245 -0.3110
H 0.3748 4.5539 -2.0783
H 1.3075 2.2604 -2.0056
H 4.5352 -2.2367 -0.0128
H 6.0230 -2.8532 0.8658
H 5.9856 -2.8732 -0.9375
H 8.2240 -1.2460 -0.8611
H 8.0586 -0.9414 0.9327
H 7.8542 1.0242 -1.4158
H 8.4869 1.3229 0.2721
H 6.7786 3.2756 0.1387
H 5.5141 2.6434 1.2469
H 5.1337 2.8684 -0.5118
