53
 
P 0.9310 -0.0687 -0.0227
C 0.1854 1.6145 -0.1852
C -1.3323 1.6979 -0.2277
C 0.7515 2.5051 0.9336
C 0.3827 -1.0493 -1.4744
C 0.8730 -0.5046 -2.8102
C 0.8214 -2.5088 -1.2955
C 0.4590 -0.6047 1.6515
Pt 3.3910 -0.0687 -0.0227
P 5.8510 -0.0687 -0.0227
C 6.7575 -1.5000 -0.6719
C 6.2475 1.2729 -1.1737
C 5.2251 2.0278 -1.7683
C 5.5379 3.0958 -2.6217
C 6.8714 3.4185 -2.8882
C 7.8970 2.6850 -2.2882
C 7.5892 1.6208 -1.4292
C 6.3230 0.0724 1.7187
C 5.3456 0.1577 2.7211
C 5.7223 0.4115 4.0508
C 7.0707 0.5767 4.3855
C 8.0504 0.4674 3.3973
C 7.6807 0.2161 2.0694
H 0.5715 2.0435 -1.1361
H -1.7820 1.2626 0.6840
H -1.7178 1.1989 -1.1385
H -1.6236 2.7725 -0.2890
H 0.3893 2.1820 1.9297
H 0.4464 3.5624 0.7871
H 1.8655 2.4714 0.9297
H -0.7288 -1.0300 -1.4741
H 1.9756 -0.5988 -2.8950
H 0.5705 0.5527 -2.9361
H 0.3980 -1.0895 -3.6301
H 1.9294 -2.5854 -1.2540
H 0.4471 -3.1346 -2.1342
H 0.4014 -2.9284 -0.3549
H -0.6515 -0.6341 1.7068
H 0.8633 0.0470 2.4448
H 0.8252 -1.6406 1.8067
H 6.3995 -1.6640 -1.7155
H 6.4156 -2.3913 -0.0968
H 7.8532 -1.4122 -0.6457
H 4.1876 1.8056 -1.5601
H 4.7470 3.6797 -3.0744
H 7.1095 4.2418 -3.5522
H 8.9298 2.9478 -2.4867
H 8.4011 1.0779 -0.9639
H 4.2954 0.0665 2.4676
H 4.9699 0.5049 4.8230
H 7.3568 0.7988 5.4080
H 9.0943 0.6007 3.6596
H 8.4565 0.1662 1.3169
