65
 
P 0.9985 0.0578 -0.0816
C 0.1350 0.2894 1.5105
C -1.2429 0.4735 1.6395
C -1.8304 0.6024 2.9162
C -3.3021 0.8157 3.0562
C -1.0381 0.5309 4.0723
C 0.3341 0.3305 3.9607
C 0.9194 0.2159 2.6922
C 0.5623 1.6088 -0.9631
C 0.9633 2.8707 -0.5253
C 0.5789 4.0348 -1.2264
C 0.9478 5.3837 -0.6948
C -0.1813 3.9369 -2.4037
C -0.5675 2.6840 -2.8743
C -0.2083 1.5281 -2.1592
C 0.5192 -1.6208 -0.6125
C 1.4931 -2.5980 -0.8890
C 1.0964 -3.8598 -1.4111
C 2.0876 -4.9326 -1.7415
C -0.2603 -4.1285 -1.6523
C -1.2238 -3.1727 -1.3541
C -0.8414 -1.9312 -0.8362
Pt 3.4585 0.0578 -0.0816
C 5.6085 0.0578 -0.0816
N 6.5125 1.0498 0.2299
C 6.2837 2.4223 0.6692
C 7.7575 0.5093 0.0540
C 9.1127 1.1655 0.2582
C 7.6147 -0.7899 -0.3586
C 8.7439 -1.7473 -0.6705
N 6.2927 -1.0675 -0.4390
C 5.7253 -2.3489 -0.8423
H -1.8552 0.5247 0.7562
H -3.8001 0.8005 2.0654
H -3.4808 1.8019 3.5331
H -3.7418 0.0152 3.6884
H -1.4847 0.6215 5.0589
H 0.9378 0.2594 4.8621
H 1.9902 0.0472 2.6488
H 1.5574 2.9478 0.3691
H 1.5747 5.2886 0.2153
H 0.0122 5.9124 -0.4153
H 1.4988 5.9838 -1.4490
H -0.4771 4.8283 -2.9537
H -1.1564 2.6181 -3.7879
H -0.5442 0.5760 -2.5561
H 2.5478 -2.3475 -0.7219
H 3.1135 -4.6371 -1.4483
H 2.0615 -5.1340 -2.8348
H 1.8163 -5.8694 -1.2053
H -0.5743 -5.0816 -2.0720
H -2.2696 -3.3932 -1.5430
H -1.6218 -1.2127 -0.6456
H 5.2038 2.6498 0.7462
H 6.7637 3.1235 -0.0499
H 6.7685 2.5770 1.6600
H 9.0676 2.2179 0.5957
H 9.6917 1.1332 -0.6930
H 9.6997 0.5884 1.0090
H 9.7451 -1.2870 -0.5296
H 8.6809 -2.0766 -1.7280
H 8.6900 -2.6287 0.0002
H 6.5295 -3.0807 -1.0790
H 5.1086 -2.2177 -1.7526
H 5.1209 -2.7669 -0.0143
