73
 
P 1.0252 -0.0910 -0.0328
C 0.1174 1.1156 -1.0189
C -1.1660 1.5987 -0.7499
C -1.7804 2.4736 -1.6628
C -1.1211 2.8590 -2.8402
Cl -1.9168 3.8945 -4.0119
C 0.1713 2.4045 -3.0925
C 0.7869 1.5493 -2.1836
C 0.5949 -1.5758 -1.0142
C 0.9753 -1.7402 -2.3574
C 0.5850 -2.8840 -3.0740
C -0.1722 -3.8849 -2.4570
Cl -0.6663 -5.3133 -3.3504
C -0.5467 -3.7418 -1.1244
C -0.1774 -2.5973 -0.4155
C 0.5467 0.2058 1.7062
C 0.4218 -0.9330 2.5459
C -0.0443 -0.8276 3.8580
C -0.3749 0.4218 4.3718
Cl -0.9639 0.5543 6.0215
C -0.2363 1.5610 3.5674
C 0.2162 1.4560 2.2385
Pt 3.4852 -0.0910 -0.0328
P 5.9452 -0.0910 -0.0328
C 6.7466 -0.4465 1.5765
C 7.5739 -1.5641 1.7976
C 8.1248 -1.8001 3.0664
C 7.8615 -0.9282 4.1258
C 7.0191 0.1640 3.9315
C 6.4452 0.3869 2.6782
C 6.2640 -1.4324 -1.1834
C 5.1794 -2.0681 -1.7995
C 5.4348 -3.0594 -2.7744
C 6.7541 -3.4121 -3.1112
C 7.8277 -2.7779 -2.4862
C 7.5856 -1.7842 -1.5332
C 6.5881 1.6299 -0.2649
C 6.2266 2.3545 -1.4375
O 5.3331 1.8236 -2.3189
C 4.9312 2.4263 -3.5003
C 6.8335 3.6095 -1.6969
C 7.7752 4.1458 -0.8264
C 8.1313 3.4514 0.3149
C 7.5625 2.2148 0.5872
H -1.6927 1.2936 0.1409
H -2.7782 2.8378 -1.4683
H 0.6960 2.6962 -3.9970
H 1.7913 1.2053 -2.4089
H 1.5590 -0.9913 -2.8640
H 0.8670 -2.9932 -4.1124
H -1.1352 -4.5119 -0.6369
H -0.5240 -2.5330 0.5979
H 0.6684 -1.9267 2.2037
H -0.1546 -1.7187 4.4714
H -0.4948 2.5277 3.9725
H 0.2936 2.3413 1.6295
H 7.7916 -2.2685 1.0130
H 8.7583 -2.6616 3.2323
H 8.2994 -1.1033 5.1010
H 6.8081 0.8393 4.7519
H 5.7862 1.2379 2.5552
H 4.1548 -1.7553 -1.5170
H 4.6220 -3.5568 -3.2857
H 6.9533 -4.1710 -3.8624
H 8.8465 -3.0472 -2.7519
H 8.4343 -1.2858 -1.0796
H 4.2040 1.7782 -4.0284
H 5.8057 2.5879 -4.1695
H 4.4434 3.4035 -3.2890
H 6.6047 4.1794 -2.5866
H 8.2475 5.0944 -1.0449
H 8.8780 3.8550 0.9866
H 7.9649 1.7429 1.4572
