85
 
P 1.0817 -0.0512 -0.0266
C 0.3157 -0.9070 -1.4920
C -1.2095 -0.9907 -1.4609
C 0.7404 -0.1354 -2.7732
C 0.9117 -2.3206 -1.5947
C 0.5654 -1.2057 1.2909
C 1.3233 -2.2963 1.7126
C 0.8979 -3.1054 2.7737
C -0.3026 -2.8291 3.4307
C -1.0625 -1.7302 3.0420
C -0.6249 -0.9209 1.9944
C 0.4676 1.6634 0.0175
C -0.9159 1.9415 0.0583
C -1.3916 3.2493 0.0930
C -0.4946 4.3119 0.1126
C 0.8792 4.0578 0.1216
C 1.3528 2.7398 0.0787
Pt 3.5417 -0.0512 -0.0266
P 6.0017 -0.0512 -0.0266
N 6.8228 -1.5748 -0.2693
C 6.1827 -2.5546 0.6673
C 4.6366 -2.6593 0.4597
C 6.7407 -3.9674 0.5178
C 8.2725 -1.4535 -0.2547
C 8.7025 -0.0082 -0.0005
C 10.2349 0.0184 -0.0049
C 8.1441 0.9378 -1.1491
N 6.6539 0.9562 -1.3388
C 6.1023 2.3607 -1.2950
C 6.6491 3.3314 -2.3396
C 4.5716 2.4343 -1.3942
N 6.6235 0.3565 1.5770
C 6.0419 1.6520 2.0756
C 4.4912 1.6774 2.1398
C 6.5956 2.1108 3.4264
C 8.1240 0.4266 1.4141
H -1.6650 0.0025 -1.5942
H -1.5532 -1.4783 -0.5292
H -1.5751 -1.5766 -2.3284
H 0.3942 0.9210 -2.7529
H 0.3120 -0.6083 -3.6849
H 1.8469 -0.1209 -2.9000
H 0.6308 -2.9368 -0.7226
H 2.0233 -2.2687 -1.6533
H 0.5402 -2.8404 -2.5024
H 2.2307 -2.5220 1.2260
H 1.5003 -3.9467 3.0865
H -0.6410 -3.4574 4.2440
H -1.9887 -1.4966 3.5535
H -1.2360 -0.0743 1.7508
H -1.6602 1.1723 0.0787
H -2.4596 3.4310 0.1104
H -0.8684 5.3266 0.1375
H 1.5758 4.8830 0.1658
H 2.4014 2.5586 0.1108
H 6.3559 -2.2368 1.7207
H 4.3311 -2.8808 -0.5819
H 4.1201 -1.7500 0.7472
H 4.2251 -3.4396 1.1358
H 6.5301 -4.3540 -0.4991
H 6.2575 -4.6248 1.2750
H 7.8230 -4.0089 0.7223
H 8.6411 -1.8048 -1.2452
H 8.7211 -2.0960 0.5252
H 10.6151 -0.3184 -0.9960
H 10.6313 -0.6763 0.7676
H 10.6067 1.0401 0.1985
H 8.5895 0.6405 -2.1230
H 8.5370 1.9458 -0.9059
H 6.4278 2.8464 -0.3954
H 6.3276 3.0371 -3.3549
H 7.7480 3.4302 -2.2871
H 6.2369 4.3455 -2.1090
H 4.1962 2.2304 -2.4128
H 4.2208 3.4334 -1.0464
H 4.0919 1.7082 -0.7788
H 6.3652 2.4656 1.4598
H 4.1173 0.9857 2.9211
H 3.9726 1.4548 1.1885
H 4.1545 2.7092 2.3816
H 6.3070 1.4183 4.2356
H 6.1896 3.1282 3.6385
H 7.6962 2.2339 3.4047
H 8.5665 -0.2302 2.1954
H 8.5114 1.4496 1.5789
