45
 
P 1.2750 0.0000 0.0000
N 0.3854 -0.2080 -1.5147
C -1.0526 -0.2182 -1.4031
C -1.4553 -0.0026 0.0442
C -2.9823 0.0067 0.1043
C -0.8625 -1.2096 0.8891
N 0.6114 -1.4024 0.7913
N 0.6057 1.5620 0.3722
C -0.8678 1.3977 0.5135
Pt 3.7350 0.0003 -0.0005
C 5.8850 0.0006 -0.0009
N 6.5917 -0.1416 1.0547
C 6.0481 -0.2120 2.3931
C 5.1112 -1.4061 2.5371
C 8.0035 -0.1243 0.7379
C 8.0252 -0.2562 -0.7934
N 6.6770 0.0957 -1.1546
C 6.2319 0.4509 -2.4830
C 4.7311 0.8022 -2.5095
H 0.7327 -1.0812 -1.9774
H -1.4452 -1.1853 -1.7943
H -1.4429 0.5891 -2.0603
H -3.3801 -0.9570 -0.2849
H -3.3769 0.8233 -0.5411
H -3.3298 0.1577 1.1429
H -1.3493 -2.1578 0.5660
H -1.1280 -1.0591 1.9554
H 0.8678 -2.2579 0.2480
H 0.8639 2.2358 -0.3839
H -1.3553 2.2141 -0.0658
H -1.1377 1.5534 1.5782
H 5.4913 0.7237 2.6160
H 6.8773 -0.3041 3.1301
H 4.2583 -1.3222 1.8282
H 4.7170 -1.4360 3.5743
H 5.6688 -2.3458 2.3395
H 8.5874 -0.9384 1.2172
H 8.3974 0.8692 1.0506
H 8.1585 -1.3255 -1.0762
H 8.8177 0.3698 -1.2540
H 6.4488 -0.3835 -3.1864
H 6.8220 1.3356 -2.8174
H 4.1264 -0.0805 -2.2614
H 4.4840 1.1332 -3.5471
H 4.4228 1.5485 -1.7344
