85
 
P 1.0716 0.0359 -0.0598
C 0.4348 -0.5019 -1.8566
C 1.0057 -1.7412 -2.6063
C 0.5391 -3.0107 -1.9957
C -1.0178 -3.0524 -1.8270
C -1.6460 -1.7523 -1.3069
C -1.1019 -0.5793 -2.0758
C 0.5583 -1.3949 1.3124
C 1.0398 -2.8423 1.0973
C 2.5738 -2.7764 0.9751
C 3.1249 -2.5068 2.3828
C 2.4182 -1.3028 3.0442
C 0.8943 -1.3000 2.8328
C 0.5412 1.8847 0.1426
C -0.1641 2.7143 -0.8193
C -0.4746 2.4409 -2.2284
C -0.6255 3.9887 -0.5075
C -0.3900 4.5732 0.7000
C -0.8974 5.9536 0.9349
C 0.3208 3.8781 1.6532
C 0.7663 2.5653 1.4135
C 1.4243 1.9754 2.6059
Pt 3.5316 0.0359 -0.0598
C 5.6816 0.0359 -0.0598
N 6.4303 0.9115 0.5185
C 5.9868 2.0485 1.3041
C 6.6090 3.3161 0.7687
C 4.4842 2.1518 1.3046
C 7.8332 0.5803 0.3784
C 7.8292 -0.8086 -0.2476
N 6.4653 -0.9733 -0.6700
C 6.0932 -1.8328 -1.7912
C 6.3640 -3.2788 -1.4090
C 4.6438 -1.6545 -2.2295
H 0.9367 0.1496 -2.5654
H 2.1098 -1.6991 -2.6533
H 0.6611 -1.7620 -3.6662
H 1.2031 -2.9314 -1.1843
H 0.9024 -3.9367 -2.4699
H -1.3431 -3.8858 -1.1684
H -1.4506 -3.2166 -2.8330
H -1.4244 -1.5844 -0.2790
H -2.7541 -1.7838 -1.3446
H -1.6481 0.3095 -1.7639
H -1.3429 -0.7461 -3.1575
H -0.5326 -1.3862 1.4308
H 0.3202 -3.3032 0.4321
H 0.8213 -3.5927 1.8879
H 2.8095 -1.9899 0.2834
H 3.0370 -3.6903 0.5598
H 4.2220 -2.3262 2.3566
H 2.9464 -3.4331 2.9730
H 2.8011 -0.4300 2.5328
H 2.6667 -1.2467 4.1266
H 0.3073 -0.5524 3.3638
H 0.4483 -2.1724 3.3833
H 0.3245 1.8993 -2.6121
H -0.1980 3.2960 -2.8739
H -1.5590 2.2825 -2.4064
H -1.1772 4.5593 -1.2484
H -1.4524 6.3295 0.0460
H -0.0312 6.6208 1.1053
H -1.5923 5.9517 1.7969
H 0.4971 4.3587 2.6111
H 1.6416 2.6698 3.4457
H 2.3381 1.5356 2.3246
H 0.7634 1.2685 3.0317
H 6.3175 1.9122 2.3672
H 6.3409 3.4112 -0.3023
H 7.7104 3.2469 0.8857
H 6.2520 4.1924 1.3455
H 4.0508 2.2041 0.2623
H 4.1504 3.0077 1.9375
H 4.1999 1.1945 1.7698
H 8.3897 0.5591 1.3432
H 8.2786 1.3266 -0.3103
H 7.9898 -1.5814 0.5321
H 8.5968 -0.8905 -1.0494
H 6.7170 -1.5759 -2.6829
H 5.7750 -3.5283 -0.5026
H 7.4455 -3.4057 -1.1908
H 6.0919 -3.9623 -2.2391
H 3.9904 -1.9054 -1.3919
H 4.4009 -2.3408 -3.0711
H 4.4397 -0.6131 -2.5615
