60
 
P 1.0941 0.0320 -0.0110
C 0.1800 -1.1592 1.0074
C 0.6002 1.6170 0.7178
C 0.5994 -0.4420 -1.6899
Pt 3.5541 0.0320 -0.0110
P 6.0141 0.0320 -0.0110
C 6.7661 0.9984 1.3087
C 6.3085 0.7035 2.6013
C 6.6971 1.4708 3.6903
C 7.5645 2.5617 3.5172
O 7.9482 3.3388 4.5658
C 7.5041 3.1787 5.8671
C 8.0335 2.8572 2.2234
C 7.6328 2.0834 1.1188
C 6.5469 -1.6140 0.4265
C 5.6209 -2.6410 0.5721
C 6.0587 -3.9185 0.9242
C 7.4312 -4.1812 1.1332
O 7.8779 -5.3994 1.5346
C 7.0555 -6.4524 1.8829
C 8.3597 -3.1503 0.9356
C 7.9197 -1.8738 0.5787
C 6.4760 0.7551 -1.5872
C 6.0978 2.0453 -1.9611
C 6.4170 2.5192 -3.2361
C 7.1207 1.7093 -4.1539
O 7.3897 2.1195 -5.4206
C 6.9111 3.2883 -5.9783
C 7.5353 0.4336 -3.7543
C 7.2141 -0.0390 -2.4807
H -0.9156 -1.0794 0.9391
H 0.5223 -1.0230 2.0594
H 0.5226 -2.1772 0.7095
H -0.5115 1.6695 0.7094
H 0.9802 2.4355 0.0706
H 0.9762 1.7337 1.7505
H -0.5121 -0.4256 -1.7404
H 0.9756 -1.4441 -1.9654
H 0.9789 0.3245 -2.3982
H 5.6097 -0.1076 2.7711
H 6.2970 1.2141 4.6621
H 7.9971 3.9175 6.5296
H 7.7536 2.1597 6.2346
H 6.4034 3.3330 5.9190
H 8.6912 3.7031 2.0683
H 7.9731 2.3533 0.1298
H 4.5652 -2.4492 0.4074
H 5.3186 -4.6950 1.0400
H 7.6657 -7.3141 2.2181
H 6.4450 -6.7621 1.0091
H 6.3869 -6.1480 2.7192
H 9.4214 -3.3289 1.0716
H 8.6483 -1.0833 0.4330
H 5.5431 2.6783 -1.2829
H 6.0947 3.5133 -3.5061
H 7.2496 3.3719 -7.0299
H 7.2904 4.1624 -5.4093
H 5.7980 3.2847 -5.9647
H 8.0851 -0.2075 -4.4355
H 7.5245 -1.0389 -2.2022
