63
 
P 0.9926 -0.0857 0.0511
C 0.7067 1.1556 1.3420
C -0.2953 2.1387 1.1819
C -0.4221 3.1866 2.0970
C 0.4263 3.2489 3.2005
C 1.3890 2.2529 3.3958
C 1.5339 1.2129 2.4667
C 0.9821 0.4907 -1.7476
C 0.4684 1.7673 -2.1067
C 0.4467 2.2204 -3.4360
C 0.9300 1.4174 -4.4600
C 1.4580 0.1681 -4.1529
C 1.5110 -0.2796 -2.8187
C -0.1044 -1.4800 0.6728
C -1.5832 -1.1248 0.6640
C -2.0251 -0.8751 -0.7768
C -1.8069 -2.1356 -1.6436
C -0.4129 -2.7786 -1.5052
C 0.0625 -2.8508 -0.0555
Pt 3.4526 -0.0857 0.0511
C 5.6026 -0.0857 0.0511
N 6.3565 0.8544 -0.5437
C 5.8836 2.0365 -1.2501
C 7.6366 0.4877 -0.3461
C 7.6364 -0.7008 0.3588
N 6.3533 -1.0463 0.6080
C 5.8690 -2.1780 1.3448
C 4.6024 -2.1360 1.9647
C 4.1668 -3.2173 2.7358
C 4.9708 -4.3529 2.8722
C 6.2137 -4.4114 2.2385
C 6.6668 -3.3262 1.4877
H -0.9778 2.1239 0.3472
H -1.1701 3.9574 1.9434
H 0.3354 4.0684 3.9027
H 2.0377 2.3002 4.2584
H 2.2994 0.4652 2.6131
H 0.0798 2.4535 -1.3894
H 0.0534 3.2025 -3.6775
H 0.9102 1.7702 -5.4876
H 1.8383 -0.4492 -4.9585
H 1.9783 -1.2365 -2.6583
H 0.2066 -1.6685 1.7255
H -1.7571 -0.2407 1.3064
H -2.1645 -1.9714 1.0988
H -1.4711 -0.0075 -1.1723
H -3.0954 -0.5931 -0.7918
H -1.9879 -1.8811 -2.7121
H -2.5460 -2.8888 -1.3194
H 0.3083 -2.1968 -2.0313
H -0.3916 -3.7776 -1.9963
H 1.1116 -3.2254 -0.0117
H -0.5637 -3.6145 0.4618
H 4.7727 2.0662 -1.2571
H 6.2498 2.0153 -2.2977
H 6.2646 2.9504 -0.7471
H 8.5031 1.0415 -0.6838
H 8.5111 -1.2459 0.6876
H 3.9762 -1.2629 1.9065
H 3.2106 -3.1698 3.2402
H 4.6346 -5.1870 3.4734
H 6.8333 -5.2935 2.3358
H 7.6354 -3.3888 1.0096
