68
 
P 1.0721 0.0612 0.0325
C 0.4221 -1.6042 -0.3852
C -0.7590 -2.1624 0.1354
C -1.0727 -3.5114 -0.1050
C -0.2246 -4.3157 -0.8717
C 0.9214 -3.7654 -1.4402
C 1.2415 -2.4209 -1.2039
C 0.4820 -0.0149 1.7689
C 0.8830 -0.9601 2.7297
C 0.3038 -0.9524 4.0154
C -0.6802 -0.0157 4.3510
C -1.0760 0.9341 3.4140
C -0.4958 0.9401 2.1397
C 0.7626 1.4990 -1.0946
C 1.1774 2.8400 -0.7804
O 1.7985 3.1256 0.4005
C 2.1554 4.4033 0.8258
C 0.9220 3.8835 -1.7086
C 0.2559 3.6375 -2.9000
C -0.1876 2.3525 -3.1886
C 0.0612 1.2943 -2.2996
Pt 3.5321 0.0612 0.0325
C 5.6821 0.0612 0.0325
N 6.3767 -0.8328 0.6229
C 5.8136 -1.9129 1.4232
C 4.2620 -1.8769 1.4329
C 6.2978 -3.2688 0.8891
C 7.7941 -0.5705 0.4435
C 7.8249 0.5029 -0.6547
N 6.4760 1.0052 -0.6432
C 6.0351 2.2576 -1.2347
C 6.3903 2.3278 -2.7224
C 4.5243 2.4733 -1.0346
H -1.4182 -1.5776 0.7561
H -1.9632 -3.9474 0.3261
H -0.4522 -5.3662 -1.0228
H 1.5729 -4.3925 -2.0419
H 2.1540 -2.0342 -1.6437
H 1.6261 -1.7023 2.4940
H 0.6045 -1.6795 4.7580
H -1.1396 -0.0239 5.3350
H -1.8410 1.6596 3.6744
H -0.8395 1.6858 1.4331
H 2.6575 4.3506 1.8117
H 1.2589 5.0583 0.9273
H 2.8621 4.8781 0.1095
H 1.2300 4.9066 -1.5241
H 0.0753 4.4537 -3.5938
H -0.7253 2.1832 -4.1124
H -0.3015 0.3121 -2.5609
H 6.1820 -1.8017 2.4684
H 3.8560 -2.0016 0.4142
H 3.8876 -0.9228 1.8382
H 3.8730 -2.6952 2.0674
H 5.9622 -3.4137 -0.1595
H 5.9018 -4.0941 1.5166
H 7.4059 -3.3395 0.9189
H 8.3929 -1.4490 0.1252
H 8.1866 -0.1630 1.4012
H 7.9674 0.0114 -1.6463
H 8.6150 1.2635 -0.4882
H 6.5834 3.0795 -0.7181
H 5.8593 1.5320 -3.2831
H 7.4856 2.2110 -2.8699
H 6.1018 3.3202 -3.1329
H 3.9316 1.7122 -1.5734
H 4.2600 3.4814 -1.4268
H 4.2785 2.4490 0.0442
