76
 
P 0.9990 -0.0652 -0.0758
C 0.5331 -1.7592 0.3138
C -0.8255 -2.0759 0.5079
C -1.2118 -3.3775 0.8379
C -0.2460 -4.3776 0.9572
C 1.1088 -4.0678 0.7690
C 1.5018 -2.7518 0.4628
C 0.5822 1.3305 1.0580
C 1.4322 2.4434 1.2131
C 1.1688 3.4206 2.1930
C 0.0610 3.3033 3.0347
C -0.8066 2.2247 2.8824
C -0.5523 1.2469 1.9053
C 0.2583 0.1495 -1.7521
C 0.5986 1.5513 -2.3215
C 2.1165 1.7367 -2.4736
C 2.7131 0.7067 -3.4490
C 2.4227 -0.7026 -2.9350
C 0.8966 -0.9061 -2.7231
Pt 3.4590 -0.0652 -0.0758
P 5.9190 -0.0652 -0.0758
N 6.8557 0.7016 1.2351
C 6.4016 0.1632 2.5233
C 8.3010 0.9314 1.2514
C 8.7909 1.3031 -0.0813
N 9.0460 0.1848 -1.0567
C 8.4257 -1.1750 -1.2337
C 7.8816 -1.9139 -0.0081
N 6.4203 -1.7241 0.2364
C 5.6207 -2.5764 -0.6509
N 6.2988 0.9482 -1.6549
C 5.4301 2.1156 -1.6905
C 7.5268 1.3877 -2.5253
C 8.9572 0.7876 -2.3657
H -1.5906 -1.3162 0.4181
H -2.2590 -3.6104 0.9999
H -0.5509 -5.3889 1.2019
H 1.8473 -4.8513 0.8690
H 2.5459 -2.4818 0.3391
H 2.3143 2.5524 0.6029
H 1.8355 4.2642 2.3220
H -0.1219 4.0426 3.8104
H -1.6653 2.1401 3.5418
H -1.2408 0.4190 1.8473
H -0.8409 0.0279 -1.6946
H 0.2076 2.3406 -1.6474
H 0.1222 1.6869 -3.3184
H 2.5481 1.5934 -1.4526
H 2.3492 2.7596 -2.8459
H 3.8130 0.8444 -3.5455
H 2.2840 0.8411 -4.4672
H 2.9717 -0.8516 -1.9898
H 2.8362 -1.4505 -3.6462
H 0.7305 -1.9360 -2.3484
H 0.4135 -0.8291 -3.7197
H 5.2921 0.0781 2.5523
H 6.7019 0.8348 3.3538
H 6.8377 -0.8453 2.6912
H 8.9183 0.1599 1.7327
H 8.4253 1.8576 1.8646
H 9.7053 1.9274 -0.0288
H 8.0415 2.0678 -0.3462
H 9.2349 -1.8043 -1.6701
H 7.6511 -1.2212 -2.0366
H 8.5107 -1.7118 0.8701
H 8.0594 -2.9976 -0.1925
H 5.9076 -3.6430 -0.5374
H 5.7252 -2.2898 -1.7206
H 4.5570 -2.4784 -0.3734
H 4.4525 1.8125 -1.3711
H 5.3763 2.5506 -2.7256
H 5.8082 2.9012 -1.0072
H 7.7522 2.4478 -2.2916
H 7.3031 1.6487 -3.5870
H 9.7332 1.5909 -2.4665
H 9.2751 0.0729 -3.1674
