105
 
P 0.9518 0.0771 0.0416
C 0.4415 -1.6011 0.5965
C -0.4212 -2.4407 -0.1318
C -0.9197 -3.6197 0.4245
C -0.5866 -3.9842 1.7266
C 0.2731 -3.1778 2.4721
C 0.7904 -1.9976 1.9124
C 0.3037 1.4495 1.0887
C -0.4601 1.1330 2.2444
C -0.9201 2.1347 3.1140
C -0.6260 3.4705 2.8539
C 0.0986 3.8022 1.7084
C 0.5411 2.7963 0.8334
C -0.0154 0.2627 -1.5946
C 0.3661 -0.6515 -2.8072
C 1.3109 -1.6097 -2.6620
C 1.7355 -2.4638 -3.7242
C 1.1951 -2.4076 -4.9400
C 0.2332 -1.4523 -5.1543
C -0.1751 -0.5649 -4.1091
Pt 3.4118 0.0771 0.0416
C 5.5618 0.0771 0.0416
N 6.3374 -1.0327 -0.0371
C 6.0450 -2.5634 -0.0117
C 4.9706 -3.2922 -0.6310
C 3.7964 -2.6015 -1.1789
C 4.2852 -1.6923 -2.4024
C 2.7255 -3.7104 -1.4372
C 4.9267 -4.7655 -0.6370
C 5.7633 -5.5620 -0.0100
C 6.6721 -4.9633 0.7355
C 6.8127 -3.5428 0.7706
C 7.7279 -3.1835 1.8236
C 9.0839 -3.2224 1.0903
C 7.0021 -2.0766 2.6558
C 7.7372 -0.5151 -0.0940
C 7.6426 0.9629 -0.3553
N 6.3162 1.2906 0.1046
C 5.8785 2.5604 0.6317
C 4.6290 3.1950 0.2400
C 3.6424 2.7278 -0.8650
C 2.8825 3.9218 -1.5544
C 4.2418 2.0188 -2.0927
C 4.2470 4.3617 0.9477
C 5.0111 4.9053 1.9538
C 6.2234 4.3547 2.2799
C 6.7009 3.2118 1.6350
C 8.0962 2.7261 2.0474
C 9.1637 3.4834 1.1924
C 8.4673 2.8346 3.5239
H -0.7635 -2.1962 -1.1151
H -1.5950 -4.2348 -0.1535
H -1.0110 -4.8838 2.1572
H 0.5120 -3.4592 3.4928
H 1.4175 -1.3703 2.5373
H -0.7089 0.1136 2.4997
H -1.4966 1.8780 3.9970
H -0.9652 4.2450 3.5346
H 0.3195 4.8413 1.5021
H 1.0692 3.0571 -0.0359
H 0.2487 1.2801 -1.9473
H -1.1000 0.1974 -1.4065
H 1.7071 -1.6282 -1.6893
H 2.4988 -3.2020 -3.7166
H 1.5696 -3.1159 -5.6804
H -0.1553 -1.4305 -6.1483
H -0.9029 0.1824 -4.3172
H 3.3408 -2.2108 -0.2596
H 4.7475 -2.3213 -3.1907
H 5.0587 -0.9585 -2.1554
H 3.5866 -1.0266 -2.9404
H 3.1761 -4.3028 -2.2553
H 1.6653 -3.7372 -1.6933
H 2.5454 -4.2015 -0.4579
H 4.1925 -5.4333 -1.0565
H 5.6160 -6.6420 -0.0401
H 7.2591 -5.6551 1.3219
H 7.7966 -3.9999 2.5909
H 9.0721 -2.7256 0.0984
H 9.2793 -4.2873 0.7866
H 9.9202 -2.8756 1.6972
H 7.1035 -1.1625 2.1976
H 7.3661 -1.8652 3.6693
H 5.8724 -2.0598 2.5895
H 8.4188 -0.9277 -0.8541
H 8.3035 -0.5508 0.8550
H 7.7258 1.2770 -1.4118
H 8.5436 1.3993 0.0548
H 2.9763 2.0248 -0.3269
H 3.6158 4.6292 -2.0019
H 2.2307 4.5339 -0.9112
H 2.2046 3.5695 -2.3655
H 4.9110 2.6896 -2.6668
H 3.4385 1.6452 -2.7742
H 4.7940 1.1424 -1.8543
H 3.3357 4.8969 0.7633
H 4.6616 5.7822 2.4802
H 6.7860 4.8341 3.0623
H 8.1038 1.6254 1.9872
H 9.1179 4.5754 1.3769
H 9.0254 3.3961 0.0911
H 10.1877 3.1172 1.4195
H 8.5816 3.8839 3.8512
H 9.4531 2.3347 3.6744
H 7.7121 2.2997 4.1363
