25
 
P 0.9946 -0.0410 -0.0911
C 0.0296 -0.7066 1.2950
C 0.5169 1.7081 -0.0467
C 0.5205 -1.1692 -1.4292
Pt 3.4546 -0.0410 -0.0911
O 5.5046 -0.0410 -0.0911
C 5.8850 0.2644 -1.3859
C 7.4173 0.2853 -1.4543
C 5.2707 -0.7797 -2.3002
H -1.0618 -0.6433 1.1632
H 0.3484 -0.1612 2.2130
H 0.3484 -1.7639 1.4439
H -0.5938 1.7667 -0.0774
H 0.9087 2.2074 -0.9573
H 0.8942 2.2113 0.8629
H -0.5901 -1.1827 -1.4956
H 0.8983 -2.1935 -1.2529
H 0.9143 -0.7703 -2.3872
H 5.5016 1.2728 -1.6499
H 7.8406 -0.6998 -1.1593
H 7.8144 1.0513 -0.7512
H 7.7680 0.5383 -2.4763
H 5.6791 -1.7844 -2.0533
H 5.5228 -0.5458 -3.3570
H 4.1607 -0.7819 -2.1322
