49
 
P 0.9468 0.0733 -0.0423
C 0.5188 -0.8445 -1.5530
C -0.4030 -0.3521 -2.4911
C -0.8005 -1.1244 -3.5836
C -0.2893 -2.4094 -3.7531
C 0.6349 -2.9152 -2.8356
C 1.0411 -2.1365 -1.7420
C 0.4635 -0.6076 1.5627
C -0.2005 -1.8581 1.5388
C -0.6675 -2.4500 2.7128
C -0.4782 -1.8028 3.9304
C 0.2044 -0.5796 3.9719
C 0.6837 0.0170 2.7923
C 0.0528 1.6782 0.0228
C 0.5129 2.5350 -1.1729
C -0.4202 3.0284 -2.1074
C -0.0054 3.7547 -3.2316
C 1.3477 4.0240 -3.4368
C 2.2914 3.5727 -2.5125
C 1.8828 2.8344 -1.3882
Pt 3.4068 0.0733 -0.0423
N 5.5068 0.0733 -0.0423
C 6.1481 -0.6348 -1.0100
C 7.5409 -0.7530 -0.9877
Cl 8.3712 -1.7036 -2.2061
C 8.2610 -0.1271 0.0328
C 7.5842 0.6113 1.0069
C 6.1892 0.6998 0.9531
H -0.8572 0.6053 -2.3799
H -1.5249 -0.7308 -4.2858
H -0.6202 -3.0138 -4.5885
H 1.0205 -3.9183 -2.9650
H 1.7382 -2.5563 -1.0280
H -0.3714 -2.3891 0.6098
H -1.1851 -3.4043 2.6761
H -0.8603 -2.2529 4.8389
H 0.3516 -0.0906 4.9232
H 1.2004 0.9625 2.8378
H 0.3643 2.2204 0.9403
H -1.0437 1.5294 0.0318
H -1.4746 2.8288 -1.9818
H -0.7360 4.1034 -3.9508
H 1.6623 4.5827 -4.3124
H 3.3412 3.7901 -2.6777
H 2.6425 2.4870 -0.6994
H 5.5684 -1.1314 -1.7772
H 9.3390 -0.2198 0.0760
H 8.1344 1.0932 1.8045
H 5.6482 1.2437 1.7157
