69
 
P 1.0350 -0.0062 -0.0935
C 0.1375 1.2959 -0.9819
C 0.5362 -1.5047 -0.9839
C 0.5326 0.2753 1.6256
Pt 3.4950 -0.0062 -0.0935
P 5.9550 -0.0062 -0.0935
C 6.8988 -1.5204 -0.7798
C 6.3841 -2.8221 -0.1046
C 4.9971 -3.2682 -0.6610
C 4.9800 -3.4806 -2.2012
C 5.5355 -2.2531 -2.9405
C 6.8823 -1.7985 -2.3392
C 6.4888 1.3879 -1.3080
C 5.9641 2.8380 -1.0250
C 6.6958 3.5608 0.1329
C 8.1938 3.7281 -0.1849
C 8.7777 2.3574 -0.4275
C 8.0317 1.5461 -1.5277
C 6.2933 0.1392 1.8676
C 5.2201 0.1916 2.8279
C 3.8333 -0.0783 2.4664
C 5.3969 0.4667 4.2120
C 6.6328 0.7225 4.7567
C 6.7547 1.1010 6.2239
C 7.7307 0.5951 3.9189
C 7.5902 0.2684 2.5278
C 8.8892 0.0329 1.8585
H -0.9590 1.2201 -0.9303
H 0.4878 1.2717 -2.0399
H 0.4875 2.2723 -0.5731
H -0.5756 -1.5541 -0.9792
H 0.9127 -2.3870 -0.4240
H 0.9118 -1.5163 -2.0231
H -0.5785 0.2524 1.6699
H 0.9062 1.2391 2.0158
H 0.9090 -0.5679 2.2429
H 7.9576 -1.3904 -0.5333
H 6.3197 -2.6654 0.9935
H 7.1232 -3.6412 -0.2627
H 4.2658 -2.4854 -0.3942
H 4.6679 -4.2122 -0.1655
H 3.9428 -3.6772 -2.5687
H 5.5688 -4.3848 -2.4808
H 4.8165 -1.4132 -2.9065
H 5.6673 -2.5205 -4.0227
H 7.2522 -0.9342 -2.9228
H 7.5951 -2.6350 -2.5378
H 6.0489 1.0672 -2.2757
H 4.8710 2.8438 -0.8619
H 6.1666 3.4631 -1.9299
H 6.5596 2.9755 1.0675
H 6.2781 4.5767 0.2982
H 8.7190 4.1961 0.6859
H 8.3739 4.3766 -1.0671
H 8.6521 1.9417 0.5441
H 9.8682 2.4193 -0.6407
H 8.5006 0.5580 -1.6838
H 8.1915 2.1142 -2.4720
H 3.8587 -0.7446 1.6318
H 3.2541 0.8549 2.5668
H 3.4585 -0.8113 3.2195
H 4.5454 0.4987 4.8881
H 5.7751 1.0377 6.7534
H 7.0938 2.1568 6.3189
H 7.4626 0.4351 6.7595
H 8.7119 0.7548 4.3676
H 9.6156 0.8371 2.1281
H 8.7459 -0.0592 0.7891
H 9.2929 -0.9411 2.1878
