64
 
P 0.9126 -0.0485 -0.0015
C -0.1034 -0.2344 1.6502
C 0.0723 0.7307 2.8870
C -0.8009 2.0207 2.8569
C -2.2582 1.7158 2.5077
C -2.4123 0.7283 1.3294
C -1.6081 -0.5451 1.5704
C 0.5884 1.6583 -0.8118
C 1.1644 2.7788 0.0224
C 2.6640 2.8478 -0.1025
C 3.1373 3.1626 -1.5017
C 2.5778 2.1166 -2.4787
C 1.0529 1.9519 -2.3010
C 0.5086 -1.5786 -0.8665
C 1.2767 -2.7655 -0.7906
C 2.5329 -2.8831 0.0226
C 0.8613 -3.8960 -1.5202
C -0.2762 -3.8475 -2.3296
C -1.0179 -2.6725 -2.4180
C -0.6310 -1.5491 -1.6885
Pt 3.3726 -0.0485 -0.0015
N 5.4726 -0.0485 -0.0015
C 6.1340 0.8819 0.7216
C 5.3277 1.7920 1.5728
C 7.5338 0.9488 0.6594
C 8.2206 0.0500 -0.1652
C 7.5106 -0.9061 -0.8955
C 6.1197 -0.9470 -0.7884
H 0.3441 -1.1885 2.0202
H 1.1366 0.9177 3.1456
H -0.3253 0.1753 3.7765
H -0.5026 2.7928 2.1612
H -0.7434 2.5452 3.8384
H -2.7790 2.6709 2.2663
H -2.7381 1.2765 3.4035
H -2.0871 1.1645 0.3777
H -3.4864 0.4699 1.2409
H -1.8118 -1.3373 0.8275
H -1.9458 -0.9608 2.5559
H -0.5094 1.7397 -0.8694
H 1.0199 2.5085 1.0428
H 0.7001 3.7554 -0.2419
H 2.9876 1.8659 0.0929
H 3.0816 3.5438 0.6493
H 4.2506 3.1284 -1.5231
H 2.8071 4.1915 -1.7528
H 3.0572 1.1331 -2.3023
H 2.8355 2.4463 -3.5133
H 0.6611 1.2194 -3.0387
H 0.6181 2.9400 -2.5965
H 2.7933 -1.9610 0.5533
H 3.3794 -3.1255 -0.6504
H 2.4153 -3.6910 0.7771
H 1.4264 -4.8188 -1.4704
H -0.5795 -4.7192 -2.8958
H -1.8934 -2.6301 -3.0541
H -1.2238 -0.6462 -1.7720
H 4.2574 1.4602 1.5019
H 5.4748 2.8402 1.2320
H 5.6380 1.6990 2.6325
H 8.0827 1.6851 1.2322
H 9.2995 0.0940 -0.2417
H 8.0285 -1.5977 -1.5481
H 5.5472 -1.6616 -1.3655
