41
 
C 0.9010 -0.6430 -0.0020
N -0.3280 -1.1519 -0.2242
C -0.6671 -2.5256 -0.5601
C 0.5902 -3.4117 -0.5998
C -1.1991 -0.1254 -0.1602
C -0.4922 1.0171 0.1129
N 0.8145 0.6970 0.2093
C 1.8473 1.6471 0.5935
C 2.4284 1.1965 1.9215
Pt 2.6584 -1.8814 -0.0135
N 4.3750 -3.0911 -0.0247
C 5.7084 -2.6387 -0.1934
N 6.0732 -1.2353 -0.3711
C 5.0830 -0.2140 -0.2514
C 7.4241 -0.7086 -0.6282
C 6.7368 -3.6078 -0.2841
C 6.4600 -4.9555 -0.1761
C 5.1564 -5.3735 0.0175
C 4.1255 -4.4301 0.0753
H -1.1629 -2.5165 -1.5610
H -1.4023 -2.9210 0.1749
H 1.3258 -3.0160 -1.3142
H 0.2596 -4.4171 -0.9496
H 1.0384 -3.4861 0.3993
H -2.2700 -0.1934 -0.3053
H -0.9043 2.0105 0.2487
H 1.3896 2.6539 0.7517
H 2.6250 1.7347 -0.1902
H 1.6116 1.1030 2.6716
H 3.1790 1.9252 2.2839
H 2.8922 0.2017 1.7944
H 4.3688 -0.5730 0.4466
H 4.8530 0.2228 -1.2542
H 5.4609 0.5994 0.3971
H 8.2531 -1.4291 -0.6521
H 7.6921 0.0181 0.1713
H 7.4472 -0.1566 -1.5946
H 7.7700 -3.3703 -0.4545
H 7.2706 -5.6724 -0.2522
H 4.9526 -6.4314 0.1074
H 3.1124 -4.7752 0.2143
