66
 
P 0.9832 -0.0820 0.0547
C 0.2773 -0.4505 -1.6490
C -1.2338 -0.5822 -1.8451
C 0.8382 0.5254 -2.7042
C 0.4529 -1.5056 1.1219
C 0.9508 -2.8912 0.7032
C 0.8637 -1.2389 2.5752
C 0.4792 1.6418 0.6067
C 0.9555 2.7934 -0.2754
C -1.0428 1.7963 0.8400
Pt 3.4432 -0.0820 0.0547
P 5.9032 -0.0820 0.0547
C 6.7871 0.2042 1.6255
C 6.4154 -0.5847 2.7414
C 6.9645 -0.3460 4.0088
C 7.8990 0.6735 4.1806
C 8.2759 1.4598 3.0891
C 7.7155 1.2380 1.8225
C 6.3836 -1.7935 -0.3208
C 5.4208 -2.7837 -0.5676
C 5.8153 -4.1067 -0.8207
C 7.1704 -4.4491 -0.8446
C 8.1386 -3.4617 -0.6560
C 7.7500 -2.1387 -0.4016
C 6.3014 1.2608 -1.1228
C 5.2653 1.9744 -1.7513
C 5.6033 2.9727 -2.6984
C 6.9441 3.2472 -3.0006
C 7.9436 2.5111 -2.3678
O 9.1162 2.7303 -2.6280
N 7.6053 1.5332 -1.4580
H 0.7194 -1.4328 -1.9167
H -1.7667 0.3647 -1.6755
H -1.6532 -1.3962 -1.2258
H -1.4273 -0.8421 -2.9128
H 0.3353 1.4998 -2.6817
H 0.6409 0.1525 -3.7309
H 1.9371 0.6599 -2.5921
H -0.6586 -1.5257 1.0971
H 2.0556 -2.9627 0.7737
H 0.6065 -3.1565 -0.3143
H 0.5148 -3.6490 1.3978
H 1.9693 -1.1868 2.6687
H 0.4854 -2.0490 3.2378
H 0.4217 -0.2867 2.9385
H 0.9625 1.7790 1.5959
H 0.3755 2.8705 -1.2039
H 2.0412 2.7137 -0.4762
H 0.7492 3.7569 0.2389
H -1.6255 1.7183 -0.0918
H -1.2701 2.8095 1.2410
H -1.4316 1.0586 1.5722
H 5.6716 -1.3682 2.6494
H 6.6577 -0.9403 4.8636
H 8.3210 0.8621 5.1617
H 8.9924 2.2573 3.2304
H 8.0002 1.8922 1.0200
H 4.3683 -2.5375 -0.5666
H 5.0707 -4.8727 -0.9931
H 7.4693 -5.4773 -1.0179
H 9.1894 -3.7273 -0.6995
H 8.5202 -1.3914 -0.2574
H 4.2146 1.7203 -1.5018
H 4.8387 3.5411 -3.2138
H 7.2078 4.0165 -3.7264
H 8.3808 0.9859 -1.0223
