43
 
C 0.9010 -0.6430 -0.0020
N -0.3470 -1.0994 0.0149
C -0.7016 -2.5118 0.0246
C -1.5705 -2.8168 -1.2048
C 0.5957 -3.3903 0.0504
C -1.1397 -0.0033 0.0169
C -0.3213 1.1163 0.0005
N 0.9591 0.6907 -0.0128
C 2.1985 1.4663 -0.0209
C 3.4192 0.5126 -0.0281
C 2.2292 2.4113 -1.2294
Pt 2.6584 -1.8814 -0.0135
C 4.4159 -3.1199 -0.0250
N 4.5091 -4.4835 -0.0655
C 3.4881 -5.5197 -0.1410
C 5.8300 -4.7700 -0.0482
Cl 6.5329 -6.3828 -0.0917
C 6.5378 -3.6031 0.0045
Cl 8.2928 -3.4673 0.0536
N 5.6642 -2.5786 0.0152
C 6.0249 -1.1697 0.0829
H -1.3075 -2.7146 0.9375
H -1.0111 -2.5889 -2.1368
H -2.4907 -2.1891 -1.1938
H -1.8881 -3.8792 -1.2151
H 1.2243 -3.2457 -0.8376
H 0.2695 -4.4507 0.1216
H 1.2517 -3.1647 0.9022
H -2.2220 -0.0086 0.0268
H -0.6363 2.1521 -0.0040
H 2.2345 2.0838 0.9031
H 3.4263 -0.1355 -0.9199
H 3.4074 -0.1428 0.8558
H 4.3474 1.1152 0.0011
H 2.1753 1.8423 -2.1813
H 3.1602 3.0168 -1.2177
H 1.3693 3.1152 -1.1905
H 2.4790 -5.1000 -0.1638
H 3.5882 -6.2029 0.7304
H 3.6483 -6.1197 -1.0650
H 7.1245 -1.0328 0.1258
H 5.6071 -0.7261 1.0086
H 5.6668 -0.6519 -0.8263
