93
 
C 0.9010 -0.6430 -0.0020
N -0.0844 -0.5351 1.0274
C -0.3307 -1.0819 2.4110
C -0.3179 -0.1043 3.6345
C -1.7111 -1.7956 2.5388
C -0.9791 0.3669 0.5993
C -0.6197 0.8543 -0.6057
N 0.5436 0.3153 -1.0221
C 1.0270 0.8420 -2.3917
C 0.1413 0.4279 -3.5541
C 1.2183 2.4174 -2.5326
Pt 2.6584 -1.8814 -0.0135
C 4.4159 -3.1199 -0.0250
N 5.6603 -2.5900 -0.2110
C 6.2749 -1.2626 -0.2593
C 7.6525 -1.1041 0.1970
C 8.4954 -2.2187 0.9295
C 9.9031 -1.8133 1.3369
C 7.7969 -2.8203 2.1813
C 8.2630 0.1595 0.0167
C 7.6183 1.2115 -0.5847
C 6.3175 1.0994 -0.9249
C 5.5923 -0.0845 -0.7042
C 4.1171 -0.0145 -0.8471
C 3.6237 1.3728 -1.1670
C 3.6627 -1.0282 -1.9911
C 6.3873 -3.6541 -0.4692
C 5.6960 -4.7420 -0.2199
N 4.4017 -4.4946 0.0626
C 3.3249 -5.5609 0.2896
C 1.9549 -5.3542 0.8015
C 1.3798 -4.0406 1.3517
C 0.0061 -4.2725 1.9985
C 2.3460 -3.5209 2.4500
C 1.0860 -6.4950 0.9789
C 1.4489 -7.7712 0.7755
C 2.6969 -8.0187 0.3642
C 3.6294 -6.9849 0.1192
C 4.9869 -7.5665 -0.0787
C 5.5527 -7.3460 -1.5505
C 5.6534 -7.2733 1.3333
H 0.4744 -1.7118 2.6195
H -1.1593 0.6194 3.6050
H 0.6358 0.4238 3.8297
H -0.4881 -0.7025 4.5723
H -2.5710 -1.1050 2.5561
H -1.7471 -2.3427 3.5181
H -1.8837 -2.5198 1.7242
H -1.8593 0.6747 1.1513
H -1.1937 1.5951 -1.1458
H 1.9529 0.4331 -2.7180
H -0.8424 0.9275 -3.4882
H 0.0666 -0.6747 -3.6063
H 0.6427 0.7620 -4.4994
H 0.3227 2.9917 -2.2518
H 1.5274 2.6461 -3.5797
H 2.0232 2.9592 -2.0025
H 8.7821 -3.0315 0.2678
H 9.8737 -1.0543 2.1411
H 10.4580 -1.4618 0.4413
H 10.4384 -2.7203 1.7000
H 7.4096 -2.0328 2.8580
H 8.4995 -3.4629 2.7590
H 6.9691 -3.5048 1.9285
H 9.2659 0.3743 0.3201
H 8.0984 2.1636 -0.7509
H 5.9029 2.0064 -1.3339
H 3.8524 0.0653 0.2693
H 3.8281 1.6253 -2.2424
H 3.9989 2.1863 -0.5217
H 2.6148 1.4201 -0.7873
H 4.0110 -0.6756 -2.9864
H 2.5864 -1.3002 -2.0586
H 4.0676 -2.0291 -1.9942
H 7.3805 -3.6957 -0.8286
H 6.2849 -5.5734 -0.2723
H 1.0626 -3.3283 0.6106
H -0.0072 -5.0634 2.7586
H -0.7852 -4.4316 1.2148
H -0.2149 -3.5520 2.7181
H 2.2880 -4.1968 3.3231
H 2.2073 -2.5143 2.8539
H 3.3722 -3.4361 2.1096
H 0.0741 -6.4978 1.3396
H 0.7607 -8.5808 1.0042
H 2.9369 -9.0723 0.2981
H 4.9350 -8.6751 -0.0679
H 4.7992 -6.8401 -2.2049
H 5.8033 -8.3069 -2.0263
H 6.5178 -6.8250 -1.7177
H 5.9415 -6.2480 1.5936
H 6.4862 -7.9429 1.5858
H 4.8888 -7.3190 2.1588
