36
 
C 1.0240 -0.6530 -0.0550
N 1.0510 0.6183 -0.0799
C 2.2646 1.3834 -0.2146
C -0.2712 1.1706 0.0974
C -1.1907 -0.0577 -0.0253
N -0.2813 -1.1681 0.1346
C -0.6624 -2.5307 0.4015
C -2.0257 -2.8801 0.5366
C -2.4078 -4.1942 0.8315
C -1.4426 -5.1875 0.9879
C -0.0922 -4.8649 0.8679
C 0.2969 -3.5495 0.5916
Pt 2.7802 -1.8697 -0.2955
N 4.4956 -3.0582 -0.5304
C 5.6282 -2.4715 -1.0009
C 6.7541 -3.2498 -1.2837
F 7.8661 -2.6808 -1.8110
C 6.7124 -4.6245 -1.0396
C 5.5476 -5.2031 -0.5298
C 4.4296 -4.3964 -0.2976
H 3.1459 0.6916 -0.3226
H 2.3926 2.0274 0.6827
H 2.1859 2.0375 -1.1093
H -0.5420 1.9397 -0.6563
H -0.3183 1.5977 1.1240
H -1.6021 -0.1361 -1.0578
H -2.0099 -0.0109 0.7214
H -2.8070 -2.1420 0.4292
H -3.4557 -4.4426 0.9428
H -1.7401 -6.2042 1.2140
H 0.6575 -5.6349 1.0030
H 1.3392 -3.3585 0.5612
H 5.6325 -1.4096 -1.2093
H 7.5758 -5.2414 -1.2536
H 5.5063 -6.2667 -0.3341
H 3.5122 -4.8314 0.0761
