50
 
C 1.0240 -0.6530 -0.0550
N 1.0471 0.6216 -0.0876
C 2.2512 1.4221 -0.2433
C 2.3865 2.3668 0.9604
C 3.5172 0.5372 -0.3887
C -0.2909 1.1592 0.0693
C -1.1977 -0.0714 -0.0713
N -0.2766 -1.1648 0.0968
C -0.6528 -2.5357 0.4068
C -1.5644 -3.0979 -0.6817
C 0.5737 -3.4441 0.5948
Pt 2.7802 -1.8697 -0.2955
N 4.4956 -3.0582 -0.5304
C 5.5321 -2.8803 0.3376
C 5.4016 -1.9311 1.4798
C 6.6945 -3.6440 0.2149
C 6.7882 -4.5979 -0.8016
C 8.0219 -5.4386 -0.9427
C 5.7107 -4.7696 -1.6806
C 4.5541 -3.9871 -1.5249
C 3.4025 -4.1248 -2.4704
H 2.1445 2.0406 -1.1624
H 2.4697 1.7812 1.9012
H 1.4947 3.0267 1.0393
H 3.2752 3.0207 0.8519
H 3.6250 -0.0369 0.5137
H 4.4098 1.1822 -0.5176
H 3.4694 -0.1653 -1.2305
H -0.5580 1.9327 -0.6818
H -0.3681 1.5731 1.0990
H -1.5818 -0.1416 -1.1141
H -2.0374 -0.0521 0.6547
H -1.2183 -2.5239 1.3679
H -1.0250 -3.1111 -1.6513
H -2.4774 -2.4736 -0.7805
H -1.8807 -4.1300 -0.4198
H 1.1167 -3.5499 -0.3541
H 0.2331 -4.4551 0.9095
H 1.2361 -3.0486 1.3937
H 4.3695 -1.5712 1.5512
H 6.1260 -1.0965 1.3778
H 5.5668 -2.4648 2.4373
H 7.5052 -3.5091 0.9219
H 8.7727 -5.1940 -0.1603
H 8.4817 -5.2638 -1.9370
H 7.7549 -6.5117 -0.8435
H 5.7761 -5.5022 -2.4761
H 3.6025 -4.8920 -3.2485
H 3.2272 -3.1522 -2.9781
H 2.4916 -4.4158 -1.9153
