62
 
C 2.3223 0.0450 -0.0394
N 1.5384 1.1463 -0.0295
C 2.0312 2.5154 0.0018
C 2.8798 2.7677 -1.2352
C 3.4234 4.1832 -1.2666
C 4.2535 4.3767 -2.5284
C 0.2640 0.6854 -0.0223
C 0.2944 -0.6846 -0.0188
C -0.8819 -1.4489 -0.0044
C -2.1094 -0.7647 0.0009
C -2.1422 0.6404 0.0000
C -0.9540 1.3847 -0.0066
N 1.5831 -1.0886 -0.0211
C 2.1051 -2.4433 -0.0125
C 2.9754 -2.6641 1.2183
C 3.5095 -4.0930 1.1938
C 4.3704 -4.3464 2.4104
Pt 4.4114 0.0965 0.0589
P 6.8260 -0.0118 0.1798
C 7.6021 -1.4564 0.9865
C 7.6158 0.1180 -1.4490
C 7.3480 1.3839 1.3089
C 6.7521 1.2411 2.6989
C 8.8916 1.4339 1.4116
C 6.8960 2.7353 0.7073
H 2.6540 2.6583 0.9134
H 1.1820 3.2273 0.0273
H 2.2453 2.6098 -2.1341
H 3.7422 2.0619 -1.2358
H 4.0599 4.3554 -0.3717
H 2.5754 4.9020 -1.2643
H 5.1036 3.6596 -2.5412
H 4.6478 5.4107 -2.5532
H 3.6247 4.2036 -3.4293
H -0.8773 -2.5288 0.0013
H -3.0424 -1.3114 0.0062
H -3.0919 1.1565 0.0040
H -1.0340 2.4594 -0.0020
H 2.7050 -2.6001 -0.9342
H 1.2721 -3.1758 -0.0062
H 2.3755 -2.4929 2.1409
H 3.8235 -1.9404 1.2265
H 4.1140 -4.2525 0.2739
H 2.6590 -4.8100 1.2010
H 5.2187 -3.6281 2.4171
H 4.7681 -5.3809 2.3883
H 3.7367 -4.2222 3.3127
H 7.2822 -2.3496 0.4053
H 7.1441 -1.6003 1.9917
H 8.6990 -1.4485 1.0508
H 7.3105 -0.7005 -2.1169
H 8.7261 0.1301 -1.3293
H 7.3548 1.1139 -1.8643
H 7.0976 0.3011 3.1652
H 5.6470 1.2554 2.6272
H 7.0852 2.0867 3.3424
H 9.2928 0.5044 1.8542
H 9.2221 2.2761 2.0589
H 9.3616 1.5862 0.4144
H 5.7933 2.7741 0.6170
H 7.3417 2.9116 -0.2971
H 7.2197 3.5850 1.3529
