87
 
C -0.1696 -0.8791 0.0144
N 0.0106 -0.1386 -1.1865
C -0.0350 -0.4740 -2.6791
C 0.2352 1.1466 -0.7476
C 0.4013 2.4233 -1.5372
C 0.3181 1.1477 0.6221
C 0.5985 2.2764 1.5539
N 0.1095 -0.0863 1.0840
C 0.1771 -0.3851 2.5209
Pt -0.5340 -3.1595 0.2051
C -0.9162 -5.5154 0.3820
N 0.1020 -6.5578 0.5738
C 1.6404 -6.5127 0.6676
C 2.5478 -7.4841 1.3166
C 2.1895 -8.6466 2.1362
C 0.9502 -8.4487 3.0043
C 1.9004 -9.6306 1.1439
C 3.9407 -7.5857 1.0805
C 4.5409 -6.8252 0.1808
C 3.8364 -5.7711 -0.2961
C 2.4352 -5.5220 -0.0219
C 1.9812 -4.1650 -0.5055
C 2.8035 -3.0925 0.3037
C 2.2479 -4.0252 -1.9534
C -0.6400 -7.7198 0.3232
C -1.6719 -7.4298 -0.4398
N -2.0174 -6.1553 -0.1414
C -3.3276 -5.5208 -0.3499
C -3.8837 -4.6606 0.6374
C -3.3415 -4.4316 2.0476
C -3.0176 -2.9271 2.2018
C -4.4071 -4.7365 3.0581
C -5.0274 -3.8990 0.3107
C -5.5584 -3.8599 -0.9306
C -5.1280 -4.7364 -1.8216
C -4.1075 -5.6532 -1.5206
C -3.9581 -6.6327 -2.5595
C -5.4342 -7.2644 -2.7383
C -3.3577 -5.9085 -3.7634
H -0.0116 -1.5199 -3.0304
H 0.8862 -0.1448 -3.2479
H -0.9646 -0.0776 -3.1575
H 0.2895 2.2753 -2.6243
H 1.3918 2.8836 -1.3071
H -0.3879 3.1271 -1.1804
H 0.7292 3.2311 1.0336
H 1.5211 1.9978 2.1211
H -0.2699 2.3282 2.2506
H 0.2126 0.4918 3.2011
H 1.2065 -0.6899 2.7537
H -0.7480 -0.8599 2.8848
H 3.0463 -9.1801 2.6410
H 0.0434 -8.0584 2.5421
H 1.2003 -7.6719 3.7199
H 0.5829 -9.4193 3.4121
H 1.1455 -9.1730 0.6079
H 2.5913 -10.3593 0.7787
H 2.8496 -9.8777 0.5494
H 4.5792 -8.3430 1.5520
H 5.5710 -7.0498 -0.0578
H 4.4733 -5.1333 -0.8681
H 0.9306 -4.0238 -0.5015
H 3.9191 -3.2782 0.3152
H 2.5080 -3.1031 1.3778
H 2.7408 -2.1031 -0.2071
H 3.2897 -3.9530 -1.8756
H 2.0760 -3.0652 -2.4622
H 1.8982 -4.9095 -2.5319
H -0.6316 -8.8381 0.3729
H -2.0064 -8.3031 -1.0719
H -2.5314 -5.1304 2.3195
H -3.8454 -2.2488 1.8651
H -2.1525 -2.6875 1.5719
H -2.9168 -2.6825 3.2835
H -5.1164 -3.9711 2.8091
H -4.2851 -4.4951 4.1318
H -4.6820 -5.7993 2.9447
H -5.5038 -3.2465 0.9861
H -6.3288 -3.1771 -1.2213
H -5.6335 -4.7126 -2.7790
H -3.2147 -7.4011 -2.4290
H -6.3469 -6.6324 -3.0190
H -6.0462 -8.0105 -2.1797
H -5.1057 -7.9668 -3.4099
H -4.1810 -5.3787 -4.0416
H -3.2758 -6.4903 -4.6839
H -2.6926 -4.9971 -3.6538
