62
 
P 0.9360 -0.0052 -0.0767
C 0.1665 0.3340 -1.8629
C -1.3708 0.3616 -1.9770
C 0.6566 1.6615 -2.5148
C 0.6505 -0.7174 -2.8916
C 0.4716 -1.8376 0.4509
C 1.0850 -2.9465 -0.4304
C 0.9874 -2.1870 1.8692
C -1.0628 -2.1015 0.5286
C 0.4115 1.4612 1.0757
C -1.1288 1.5784 1.1806
C 0.8977 1.2488 2.5272
C 0.9533 2.8468 0.6766
Pt 3.3960 -0.0052 -0.0767
C 5.5460 -0.0052 -0.0767
N 6.4462 0.0513 -1.1145
C 6.2122 0.1343 -2.5518
C 7.6900 0.0145 -0.5479
C 9.0389 0.0495 -1.2397
C 7.5487 -0.0629 0.8140
C 8.6761 -0.1271 1.8194
N 6.2277 -0.0728 1.1028
C 5.6573 -0.1429 2.4440
H -1.8367 1.2386 -1.5352
H -1.8552 -0.5256 -1.6062
H -1.6803 0.4140 -3.0414
H 0.2204 2.5618 -2.0840
H 0.2776 1.7385 -3.5624
H 1.7645 1.7361 -2.5743
H 0.1823 -1.6774 -2.7353
H 1.7608 -0.7677 -2.9711
H 0.2682 -0.4944 -3.9137
H 2.1907 -2.9039 -0.4121
H 0.7411 -3.0086 -1.4491
H 0.7553 -3.9435 -0.0576
H 2.0887 -2.0938 1.9417
H 0.7186 -3.2408 2.1239
H 0.4898 -1.6347 2.6728
H -1.5692 -2.0706 -0.4318
H -1.5803 -1.4682 1.2733
H -1.2780 -3.1436 0.8457
H -1.6064 0.6247 1.4520
H -1.5782 1.9886 0.2785
H -1.4351 2.3139 1.9535
H 0.4925 0.3427 2.9764
H 0.4976 2.0523 3.1905
H 2.0014 1.2678 2.6132
H 0.5509 3.2211 -0.2573
H 2.0603 2.8626 0.6482
H 0.6055 3.6138 1.4067
H 5.1319 0.1522 -2.7873
H 6.6881 -0.7385 -3.0525
H 6.6943 1.0556 -2.9492
H 8.9809 0.1137 -2.3423
H 9.6178 -0.8643 -0.9753
H 9.6238 0.9228 -0.8718
H 9.6763 -0.1064 1.3369
H 8.6104 -1.0690 2.4017
H 8.6224 0.7418 2.5067
H 6.4582 -0.1884 3.2145
H 5.0395 -1.0570 2.5427
H 5.0519 0.7637 2.6415
