70
 
C 2.3419 0.1698 -0.0787
N 1.5011 1.2470 -0.1418
C 2.0237 2.6065 -0.0811
C 2.9608 2.7950 -1.2643
C 0.9181 3.6419 -0.0729
C 0.2143 0.7621 -0.1105
C 0.2774 -0.5945 -0.0881
C -0.9005 -1.3897 -0.0733
C -2.1483 -0.7636 -0.0212
C -2.2208 0.6278 -0.0120
C -1.0575 1.3996 -0.0594
N 1.5811 -0.9922 -0.0452
C 1.9635 -2.4237 -0.0022
C 1.9975 -2.8067 1.3990
C 0.9088 -2.4913 2.2051
C 1.2976 -1.8640 3.3703
C 2.4856 -2.2553 3.9396
C 3.1727 -3.3565 3.3454
C 3.1135 -3.3481 1.9781
Pt 4.5421 0.5096 0.2206
P 7.0149 0.8214 0.5652
N 7.2097 -0.3322 1.9546
C 6.3258 -1.4961 1.7030
C 8.5346 -0.7162 2.4009
O 8.0255 2.1554 1.0084
C 8.5392 3.0715 0.0845
C 8.2702 4.4769 0.1641
C 8.5642 5.3338 -0.9186
C 9.2255 4.8615 -2.0421
C 9.6785 3.5515 -2.0573
C 9.3353 2.6614 -1.0183
C 9.8705 1.3152 -1.0373
C 11.2683 1.2195 -0.9499
C 11.8685 -0.0082 -0.7256
C 11.0781 -1.1504 -0.6010
C 9.6843 -1.0681 -0.7373
C 9.0554 0.1656 -0.9413
O 7.6887 0.2283 -0.8930
H 2.5967 2.7249 0.8669
H 2.3872 2.5962 -2.1962
H 3.8173 2.0826 -1.2061
H 3.3524 3.8272 -1.2587
H 0.3296 3.5050 -1.0074
H 1.3111 4.6705 -0.0433
H 0.3232 3.4904 0.8591
H -0.8881 -2.4744 -0.0593
H -3.0616 -1.3463 0.0182
H -3.1795 1.1267 0.0258
H -1.2470 2.4480 -0.0427
H 2.9580 -2.5566 -0.4643
H 1.1889 -3.0823 -0.4235
H -0.0672 -2.4013 1.8336
H 0.6933 -1.1320 3.8865
H 2.7067 -1.7405 4.8528
H 3.9236 -4.0069 3.7340
H 3.9484 -3.7358 1.4121
H 5.2713 -1.1602 1.4790
H 6.2923 -2.2234 2.5541
H 6.7137 -2.0626 0.8316
H 9.1119 0.1903 2.6546
H 9.0134 -1.2906 1.6182
H 8.4841 -1.3911 3.2943
H 7.7541 4.9632 0.9773
H 8.2197 6.3647 -0.9284
H 9.3792 5.5083 -2.9039
H 10.2297 3.2036 -2.9218
H 11.8834 2.1152 -0.9668
H 12.9420 -0.0511 -0.6044
H 11.5500 -2.0933 -0.3631
H 9.0890 -1.9587 -0.5849
