44
 
C -0.3280 -1.0820 0.0030
N 0.8404 -0.6339 -0.4928
H 1.5854 -1.1976 -0.9581
C 0.8107 0.7008 -0.3184
Cl 2.0693 1.8045 -0.8397
C -0.3657 1.0347 0.3187
Cl -0.8707 2.6328 0.8346
N -1.0860 -0.0858 0.4966
Pt -0.9444 -3.1417 0.0167
P -1.6497 -5.4984 0.0323
C -2.6412 -6.0309 1.4616
C -3.9691 -6.4974 1.4601
C -4.6213 -6.7636 2.6744
C -3.9703 -6.5561 3.8942
C -2.6596 -6.0887 3.9087
C -2.0029 -5.8316 2.7049
C -2.7865 -5.7115 -1.3570
C -3.0121 -4.6795 -2.2735
C -3.8288 -4.9015 -3.3925
C -4.4190 -6.1532 -3.6032
C -4.1695 -7.1970 -2.7150
C -3.3469 -6.9827 -1.6101
C -0.1602 -6.5301 0.0264
C 1.1159 -5.9578 0.0483
C 2.2433 -6.7886 -0.0335
C 2.0940 -8.1731 -0.1447
C 0.8113 -8.7175 -0.1552
O 0.6621 -9.9239 -0.2574
N -0.2831 -7.8912 -0.0625
H -2.0165 -0.1771 0.9609
H -4.5304 -6.6354 0.5560
H -5.6441 -7.1139 2.6736
H -4.4835 -6.7445 4.8292
H -2.1556 -5.9103 4.8522
H -0.9908 -5.4432 2.7495
H -2.5353 -3.7185 -2.1399
H -3.9989 -4.1062 -4.1042
H -5.0567 -6.3218 -4.4614
H -4.6049 -8.1755 -2.8840
H -3.1574 -7.8201 -0.9547
H 1.2326 -4.8826 0.1121
H 3.2376 -6.3631 -0.0253
H 2.9644 -8.8159 -0.2261
H -1.2274 -8.3315 -0.0805
