52
 
C 2.3270 0.0340 0.0000
N 1.5574 1.1343 -0.0118
C 2.1078 2.4982 -0.0137
C 3.6742 2.4480 0.0342
C 1.6355 3.2844 -1.2512
C 0.2819 0.6599 -0.0124
C 0.3105 -0.7232 -0.0096
C -0.8756 -1.4798 0.0082
C -2.1012 -0.7977 0.0067
C -2.1342 0.6085 -0.0068
C -0.9393 1.3553 -0.0107
N 1.5977 -1.1548 -0.0086
C 2.0253 -2.6222 -0.0007
C 2.6368 -3.0381 1.3339
C 1.9029 -2.6223 2.4354
C 2.4517 -2.6453 3.7031
C 3.6982 -3.2209 3.9255
C 4.3728 -3.8474 2.8717
C 3.8639 -3.7391 1.5551
Pt 4.4769 0.0580 0.0014
N 6.5767 0.0815 0.0028
C 7.1995 -1.1227 -0.1780
C 8.6048 -1.2229 -0.1557
C 9.3299 -2.5034 -0.4677
C 9.3515 -0.0823 0.1341
C 8.7081 1.1448 0.2879
C 7.3083 1.2190 0.1819
H 1.7350 3.0277 0.8903
H 4.1011 1.9260 -0.8344
H 4.0338 1.9240 0.9333
H 4.0693 3.4825 0.0473
H 1.9771 2.7995 -2.1888
H 2.0298 4.3226 -1.2184
H 0.5314 3.3695 -1.2880
H -0.8876 -2.5596 0.0281
H -3.0295 -1.3583 0.0178
H -3.0929 1.1137 -0.0096
H -0.9975 2.4319 -0.0094
H 2.6821 -2.8693 -0.8601
H 1.1315 -3.2740 -0.1104
H 0.9195 -2.2051 2.2870
H 1.9013 -2.1779 4.5011
H 4.1203 -3.1870 4.9216
H 5.3073 -4.3613 3.0906
H 4.4471 -4.1791 0.7501
H 6.5946 -1.9984 -0.3772
H 8.6399 -3.2913 -0.8351
H 9.8879 -2.8718 0.4167
H 10.0640 -2.3041 -1.2829
H 10.4331 -0.1434 0.2047
H 9.3026 2.0274 0.4823
H 6.8182 2.1739 0.2993
