44
 
C -0.3280 -1.0820 0.0030
N -1.0722 -0.0613 -0.4616
H -2.0382 -0.1125 -0.8533
C -0.3219 1.0400 -0.2699
Cl -0.8271 2.6727 -0.6608
C 0.8825 0.6603 0.2839
Cl 2.2348 1.7017 0.6862
N 0.8651 -0.6706 0.4692
Pt -0.9444 -3.1417 0.0167
P -1.6497 -5.4984 0.0323
O -2.7004 -6.1471 1.2303
C -3.8298 -5.2412 1.3434
C -4.7755 -5.6215 2.4903
C -3.4775 -3.7295 1.5168
O -2.8658 -5.6809 -1.1572
C -2.4742 -5.3876 -2.4722
C -1.3184 -6.2675 -2.9767
C -3.7217 -5.6521 -3.3257
O -0.2808 -6.4709 0.4094
C 0.3484 -6.0851 1.6069
C 1.5531 -7.0176 1.8670
C 0.8581 -4.6344 1.5466
H 1.6255 -1.2692 0.8607
H -4.4649 -5.3432 0.4408
H -4.2938 -5.5117 3.4841
H -5.1694 -6.6499 2.3673
H -5.6551 -4.9342 2.4654
H -2.9217 -3.5568 2.4643
H -4.4113 -3.1313 1.5295
H -2.9161 -3.2969 0.6556
H -2.2195 -4.3105 -2.5681
H -1.5389 -7.3451 -2.8172
H -0.3774 -6.0052 -2.4525
H -1.1535 -6.0940 -4.0622
H -4.0250 -6.7221 -3.2562
H -3.5486 -5.3964 -4.3907
H -4.5695 -5.0387 -2.9487
H -0.3536 -6.2324 2.4545
H 2.3047 -6.9615 1.0479
H 1.2462 -8.0807 1.9831
H 2.0566 -6.7176 2.8115
H 1.5287 -4.4780 0.6793
H 1.3806 -4.4111 2.4970
H 0.0336 -3.9375 1.5254
