77
 
C 1.0240 -0.6530 -0.0550
N 1.0426 0.6718 -0.1173
C 2.1779 1.6219 -0.2795
C 2.0680 2.9353 -0.9287
C 0.8864 3.6145 -1.6052
C 3.2046 3.7792 -1.0291
C 4.4332 3.4351 -0.4954
C 5.6330 4.3273 -0.5614
C 4.5680 2.2266 0.1193
C 3.5015 1.3354 0.2173
C 3.9026 0.0821 0.8207
C -0.3192 1.1197 0.0988
C -1.1551 -0.1005 -0.1286
N -0.2706 -1.1755 0.1438
C -0.6429 -2.5331 0.4063
C -1.8870 -3.0762 -0.0852
C -2.9907 -2.3600 -0.8657
C -2.1805 -4.4237 0.1551
C -1.3260 -5.2415 0.8863
C -1.6623 -6.6774 1.1374
C -0.1611 -4.7155 1.4219
C 0.1974 -3.3796 1.2172
C 1.4254 -2.9239 1.9922
Pt 2.7802 -1.8697 -0.2955
P 4.7896 -3.2619 -0.5706
C 5.2113 -4.4968 0.7007
C 4.4459 -4.3708 -1.9802
C 5.2841 -4.3170 -3.1241
C 5.0424 -5.1391 -4.2355
C 3.9706 -6.0294 -4.2196
C 3.1469 -6.1034 -3.0918
C 3.3805 -5.2789 -1.9777
C 6.2871 -2.2099 -0.5480
C 7.3140 -2.3582 0.4095
C 8.4784 -1.5906 0.3384
C 8.6505 -0.6672 -0.6901
C 7.6579 -0.5160 -1.6594
C 6.4835 -1.2814 -1.5919
H -0.1249 3.2608 -1.5895
H 1.1003 3.6770 -2.6924
H 0.7856 4.6423 -1.1952
H 3.1297 4.7420 -1.5238
H 5.4178 5.2724 -1.0962
H 6.4626 3.7940 -1.0754
H 5.9541 4.5624 0.4769
H 5.5483 1.9664 0.5111
H 4.9094 0.0278 1.2694
H 4.1093 -0.4411 -0.1288
H 3.1767 -0.2099 1.5970
H -0.7782 1.8010 -0.5871
H -0.3975 1.5131 1.1335
H -1.3271 -0.1312 -1.2335
H -2.0622 -0.0537 0.5106
H -2.9684 -1.2956 -1.0760
H -3.9381 -2.4518 -0.2950
H -3.1076 -2.8189 -1.8661
H -3.1043 -4.8393 -0.2295
H -2.6201 -6.9603 0.6540
H -1.7498 -6.8511 2.2306
H -0.8537 -7.3191 0.7289
H 0.4644 -5.3610 2.0287
H 1.9111 -3.7558 2.5462
H 1.1555 -2.1372 2.7246
H 2.2394 -2.5479 1.4144
H 4.3444 -5.1734 0.8480
H 5.3069 -3.9485 1.6680
H 6.1295 -5.0686 0.4826
H 6.1284 -3.6403 -3.1753
H 5.6812 -5.0889 -5.1131
H 3.7799 -6.6620 -5.0809
H 2.3221 -6.8020 -3.0859
H 2.7332 -5.3491 -1.1180
H 7.2570 -3.0699 1.2127
H 9.2551 -1.7248 1.0803
H 9.5596 -0.0801 -0.7395
H 7.8099 0.1875 -2.4692
H 5.7441 -1.1645 -2.3746
