79
 
N -1.3900 -0.1120 -0.0540
C -0.5467 -0.3294 -1.1101
C 0.8433 -0.3351 -0.9248
F 1.6789 -0.4988 -1.9795
C 1.3653 -0.1881 0.3591
C 0.5005 -0.0132 1.4325
C -0.8738 0.0428 1.2026
Pt -3.4756 -0.2017 -0.2821
C -5.6110 -0.2936 -0.5156
N -6.3928 0.7941 -0.7197
C -6.0864 2.3188 -0.7300
C -6.8698 3.4207 -1.3735
C -8.0315 3.4152 -2.3800
C -7.5100 3.4249 -3.8400
C -8.9728 2.3141 -2.2371
C -6.4756 4.7894 -1.2240
C -5.3790 5.1962 -0.5194
C -4.5578 4.2550 -0.0255
C -4.8593 2.8945 -0.1677
C -3.7082 2.0999 0.1168
C -4.0388 1.5880 1.5775
C -3.4579 1.6255 -1.4233
C -7.7357 0.2141 -0.7277
C -7.5537 -1.2425 -1.0152
N -6.2449 -1.5486 -0.6337
C -5.8207 -2.7550 0.0322
C -4.5123 -3.3304 -0.2479
C -3.4873 -2.8661 -1.3475
C -2.7261 -4.0989 -1.9610
C -4.0683 -2.1885 -2.6027
C -4.1164 -4.4436 0.5381
C -4.9169 -4.9942 1.5138
C -6.1658 -4.4880 1.7586
C -6.6759 -3.3971 1.0463
C -8.0974 -2.9898 1.5355
C -8.0772 -1.5576 2.1173
C -9.3110 -3.4276 0.6134
H -0.9443 -0.4701 -2.1056
H 2.4345 -0.2239 0.5273
H 0.8878 0.0640 2.4413
H -1.5064 0.1321 2.0600
H -8.6753 4.3087 -2.2113
H -6.8440 2.5476 -4.0193
H -6.9495 4.3458 -4.0859
H -8.3691 3.3341 -4.5428
H -8.4077 1.5048 -2.7371
H -9.8900 2.4111 -2.8351
H -9.2490 2.2584 -1.1538
H -7.0186 5.6010 -1.6901
H -5.1086 6.2409 -0.4275
H -3.6320 4.5990 0.4359
H -2.7530 2.6407 0.3389
H -5.0908 1.2668 1.7488
H -3.9307 2.4737 2.2672
H -3.3988 0.8388 2.0419
H -4.1897 0.9476 -1.8072
H -2.5237 1.1143 -1.6461
H -3.7998 2.2084 -2.2941
H -8.6082 0.2495 -1.3523
H -8.1941 0.4896 0.2411
H -7.6879 -1.5570 -2.0791
H -8.2744 -1.6288 -0.4104
H -2.7144 -2.2403 -0.8801
H -3.4455 -4.8507 -2.3635
H -2.0458 -4.6132 -1.2565
H -2.0520 -3.8082 -2.7969
H -4.7229 -2.8903 -3.1679
H -3.2354 -1.8918 -3.2800
H -4.6078 -1.2641 -2.4405
H -3.1696 -4.9383 0.4290
H -4.5649 -5.8396 2.0912
H -6.7406 -4.9642 2.5429
H -8.3839 -3.5834 2.4290
H -7.4343 -0.8785 1.5557
H -7.5578 -1.5477 3.0965
H -9.0961 -1.1325 2.2384
H -9.4965 -3.0890 -0.4276
H -10.2625 -3.1634 1.1212
H -9.2679 -4.5205 0.4571
