21
 
N -0.6590 -1.2280 -0.0510
C -1.2191 -0.2909 0.7557
Cl -2.6331 -0.7175 1.6958
C -0.6518 0.9867 0.8421
C 0.4688 1.2891 0.0626
C 1.0231 0.3103 -0.7647
C 0.4498 -0.9633 -0.7920
Pt -1.5756 -3.1044 -0.2726
O -2.4704 -4.9360 -0.4889
C -2.1032 -5.8536 -1.3479
C -2.9466 -6.9385 -1.2092
C -3.8133 -6.6262 -0.1784
C -3.4908 -5.3457 0.2220
H -1.0792 1.7406 1.4904
H 0.9037 2.2802 0.0940
H 1.8776 0.5398 -1.3888
H 0.8475 -1.7249 -1.4500
H -1.3108 -5.7385 -2.0754
H -2.9326 -7.8518 -1.7887
H -4.5895 -7.2587 0.2316
H -3.9486 -4.7839 1.0255
