28
 
P 0.9881 0.0883 0.0453
O -0.1890 -0.6247 -0.9456
C 0.3319 -0.4808 -2.2753
O 0.5079 -0.6115 1.5237
C 1.1082 0.1218 2.5680
O 0.6567 1.6352 -0.6129
C 1.2749 2.6315 0.1400
Pt 3.4481 0.0883 0.0453
N 5.5481 0.0883 0.0453
C 6.1924 -1.1039 -0.0693
C 7.5837 -1.1648 0.0318
C 8.3026 0.0106 0.2615
Cl 10.0470 -0.0473 0.4375
C 7.6233 1.2281 0.3690
C 6.2291 1.2468 0.2548
H 0.0180 -1.3111 -2.9358
H 1.4563 -0.4800 -2.3643
H -0.0309 0.4734 -2.7159
H 0.6475 -0.1832 3.5300
H 0.9129 1.2098 2.5202
H 2.1978 -0.0859 2.6180
H 1.1358 3.5860 -0.4087
H 2.3671 2.4505 0.2301
H 0.7563 2.7809 1.1044
H 5.6198 -2.0090 -0.2224
H 8.0930 -2.1169 -0.0489
H 8.1668 2.1449 0.5575
H 5.6877 2.1767 0.3649
