27
 
N -1.4033 -0.1158 -0.1368
C -0.7836 1.1085 -0.1275
C 0.6114 1.2100 -0.1667
C 1.3820 0.0611 -0.0604
C 2.8741 0.1399 -0.1985
C 0.7405 -1.1644 0.1470
C -0.6601 -1.2442 0.0388
Pt -3.4436 -0.1546 -0.2833
N -5.4682 -0.1246 -0.4263
C -5.4580 0.5198 0.8825
N -6.1963 -1.2998 -0.5606
C -7.4541 -1.0607 -0.8055
C -7.6640 0.2966 -0.8988
C -6.4131 0.8611 -0.8771
H -1.3540 2.0259 -0.1178
H 1.1036 2.1702 -0.2793
H 3.2099 1.1761 -0.4277
H 3.1770 -0.4937 -1.0632
H 3.3786 -0.2162 0.7156
H 1.3277 -2.0482 0.3406
H -1.1515 -2.1996 0.1135
H -4.6880 0.0366 1.5044
H -6.4209 0.6129 1.4422
H -4.8955 1.4970 0.7461
H -8.2521 -1.7961 -0.9427
H -8.5751 0.8879 -0.9101
H -6.3346 1.9409 -0.8478
