32
 
N -1.3949 -0.1109 -0.0752
C -0.5297 -0.3182 -1.1426
C 0.8414 -0.5379 -0.9422
C 1.7241 -1.0770 -2.0306
C 1.3572 -0.2587 0.2516
C 0.5454 0.2539 1.2555
C -0.8509 0.1852 1.1353
Pt -3.4736 -0.2061 -0.3061
N -5.5410 -0.2924 -0.5152
C -6.3291 0.2910 0.4118
C -5.7182 0.9962 1.5930
C -7.7013 0.2439 0.2224
C -8.1625 0.0390 -1.0837
C -7.4076 -0.7823 -1.8936
C -6.1054 -0.9428 -1.5955
C -5.2606 -1.8385 -2.4563
H -0.8992 -0.3358 -2.1256
H 1.1369 -1.2464 -2.9178
H 2.1640 -2.0143 -1.7193
H 2.5106 -0.3780 -2.2539
H 2.3718 -0.4221 0.4106
H 0.9813 0.6736 2.1061
H -1.4696 0.3608 1.9589
H -4.6405 0.9332 1.5465
H -6.0624 0.5423 2.5034
H -6.0069 2.0400 1.5888
H -8.3590 0.3686 1.0270
H -9.0531 0.4734 -1.4297
H -7.8171 -1.2695 -2.7184
H -5.8501 -2.2683 -3.2518
H -4.8552 -2.6385 -1.8540
H -4.4511 -1.2736 -2.8818
