82
 
P 1.0624 -0.0149 0.0767
O -0.0909 -0.5201 1.2569
C 0.2887 -1.7954 1.7911
O 0.3748 1.5605 -0.1417
C 0.3203 2.3062 1.0612
O 0.5907 -1.2470 -1.0154
C -0.8048 -1.0767 -1.2718
Pt 3.5224 -0.0149 0.0767
C 5.6724 -0.0149 0.0767
N 6.4046 1.1796 0.1640
C 6.1117 2.6702 0.1589
C 4.9161 3.2368 0.6765
C 3.8349 2.4452 1.1116
C 3.1715 2.3050 -0.2517
C 4.2336 1.3528 2.1231
C 4.6108 4.6116 0.6995
C 5.5138 5.5206 0.2835
C 6.7198 5.0688 -0.2180
C 7.0283 3.6737 -0.3396
C 8.2836 3.3239 -1.1192
C 8.1801 3.9313 -2.5266
C 9.5778 3.7736 -0.4307
C 7.6296 0.7401 0.4875
C 7.6727 -0.6437 0.5176
N 6.4546 -1.1790 0.2140
C 6.1236 -2.6881 0.1573
C 6.6131 -3.6428 1.1671
C 7.5752 -3.3398 2.3350
C 7.0478 -3.7158 3.7325
C 8.8832 -4.1125 2.1028
C 6.1950 -5.0068 1.1159
C 5.3595 -5.5044 0.1425
C 4.9476 -4.6957 -0.8708
C 5.3115 -3.3457 -0.9308
C 4.6421 -2.5943 -2.1100
C 3.9253 -3.2828 -3.3083
C 3.5186 -1.9201 -1.4282
H -0.1592 -1.9169 2.8046
H 1.3717 -1.9584 1.9903
H -0.0499 -2.6250 1.1284
H 0.1024 3.3642 0.7916
H 1.2611 2.3590 1.6038
H -0.3988 1.9061 1.7898
H -1.1239 -1.7361 -2.0987
H -1.0732 -0.0354 -1.5661
H -1.4422 -1.3836 -0.4092
H 3.1837 3.0514 1.7772
H 3.6283 1.7657 -1.1166
H 2.6258 3.2040 -0.6211
H 2.5084 1.7364 0.1011
H 4.4185 0.4166 1.7799
H 3.4833 0.9764 2.8207
H 5.2259 1.6068 2.5910
H 3.6340 4.9767 1.0345
H 5.2374 6.5673 0.3344
H 7.3907 5.8374 -0.5567
H 8.3457 2.2382 -1.2807
H 8.0669 5.0353 -2.4887
H 7.2915 3.5183 -3.0521
H 9.0913 3.7091 -3.1128
H 9.7054 4.8740 -0.4768
H 10.4407 3.3087 -0.9555
H 9.6078 3.4422 0.6286
H 8.4471 1.3983 0.7480
H 8.5843 -1.1610 0.7722
H 7.8165 -2.2749 2.3952
H 6.8072 -4.7962 3.8216
H 6.1576 -3.1126 3.9920
H 7.8423 -3.5120 4.4879
H 8.7074 -5.2120 2.1118
H 9.6334 -3.9012 2.8943
H 9.3029 -3.8067 1.1247
H 6.5038 -5.7332 1.8548
H 5.0247 -6.5375 0.1552
H 4.2865 -5.1380 -1.6041
H 5.4065 -1.9189 -2.5472
H 3.0189 -3.8707 -3.0184
H 4.5950 -3.9041 -3.9276
H 3.5308 -2.4734 -3.9714
H 2.8294 -2.6382 -0.9284
H 3.0356 -1.1087 -1.9678
H 4.0881 -1.5506 -0.6601
