32
 
O -0.3280 -1.0820 0.0030
C -0.7675 -0.1690 -0.8262
C -0.1393 1.0242 -0.5264
C 0.6854 0.7684 0.5538
C 0.5426 -0.5736 0.8380
Pt -0.9157 -3.0459 0.0160
P -1.6210 -5.4026 0.0316
C -0.6775 -6.7019 0.8959
C -3.1849 -5.4003 0.9534
C -1.7343 -5.8996 -1.7380
C -0.3390 -5.7879 -2.3816
C -2.2115 -7.3662 -1.8365
C -2.7151 -4.9868 -2.4761
H -1.4770 -0.3459 -1.6232
H -0.2670 1.9715 -1.0327
H 1.3164 1.4770 1.0734
H 1.0289 -1.1236 1.6328
H -0.5251 -6.3900 1.9518
H 0.3420 -6.7027 0.4432
H -1.1046 -7.7144 0.8467
H -3.0197 -5.0729 1.9987
H -3.5863 -6.4380 0.9598
H -3.9193 -4.7399 0.4528
H 0.3939 -6.4519 -1.8754
H 0.0378 -4.7447 -2.3225
H -0.3742 -6.0899 -3.4509
H -1.5013 -8.0582 -1.3362
H -2.2763 -7.6947 -2.8953
H -3.2088 -7.4943 -1.3655
H -2.3847 -3.9269 -2.4025
H -3.7326 -5.0814 -2.0418
H -2.7720 -5.2799 -3.5483
