81
 
N -1.3900 -0.1120 -0.0540
C -0.8387 1.0569 0.3902
C 0.5566 1.2322 0.4402
C 1.4111 0.1926 0.0361
O 2.7682 0.2990 0.0432
C 3.4813 1.4512 0.3095
C 0.8370 -0.9861 -0.4269
C -0.5547 -1.1054 -0.4903
Pt -3.4756 -0.2017 -0.2821
C -5.6110 -0.2936 -0.5156
N -6.2734 -1.5110 -0.5321
C -5.8687 -2.9592 -0.5248
C -4.6944 -3.4791 0.1520
C -3.7507 -2.6893 0.9976
C -4.2427 -2.7718 2.4395
C -2.2933 -3.1555 0.8783
C -4.4354 -4.8671 0.2007
C -5.2680 -5.7841 -0.3398
C -6.4042 -5.3624 -0.9681
C -6.7244 -3.9877 -1.1133
C -7.9676 -3.7161 -1.9578
C -7.7957 -4.3518 -3.3490
C -9.2628 -4.2333 -1.3006
C -7.5546 -1.1467 -0.3074
C -7.6802 0.2219 -0.2329
N -6.4767 0.8125 -0.3881
C -6.3043 2.3211 -0.3621
C -6.9772 3.2109 0.6129
C -7.9589 2.8037 1.7251
C -7.5662 3.2775 3.1458
C -9.3451 3.3983 1.3952
C -6.7643 4.6192 0.5650
C -5.9730 5.2163 -0.3756
C -5.3768 4.4462 -1.3266
C -5.5238 3.0358 -1.3745
C -4.7921 2.3921 -2.5399
C -4.9027 3.1356 -3.9259
C -3.3385 2.3581 -2.1025
H -1.4780 1.8769 0.6829
H 0.9614 2.1762 0.7759
H 4.5703 1.2378 0.2656
H 3.2396 1.8297 1.3240
H 3.2451 2.2239 -0.4534
H 1.4659 -1.7967 -0.7801
H -0.9304 -1.9783 -0.9649
H -3.8069 -1.6993 0.7186
H -4.3801 -3.8359 2.7314
H -5.2303 -2.2658 2.5160
H -3.5317 -2.2932 3.1402
H -2.0845 -4.0843 1.4314
H -1.5932 -2.4286 1.3304
H -2.1007 -3.3844 -0.1885
H -3.5846 -5.2951 0.7021
H -5.0186 -6.8339 -0.2459
H -7.0302 -6.1494 -1.3563
H -8.0850 -2.6393 -2.1425
H -7.6547 -5.4521 -3.2940
H -6.9031 -3.9221 -3.8495
H -8.6932 -4.1762 -3.9720
H -9.3147 -5.3426 -1.2919
H -10.1348 -3.8544 -1.8767
H -9.3672 -3.8714 -0.2564
H -8.3702 -1.8300 -0.1380
H -8.6196 0.7238 -0.0535
H -8.0474 1.7122 1.7883
H -7.5023 4.3842 3.2370
H -6.6048 2.8348 3.4696
H -8.3537 2.9597 3.8662
H -9.3299 4.5125 1.3892
H -10.1001 3.0921 2.1479
H -9.6733 3.0524 0.3946
H -7.2218 5.3056 1.2663
H -5.8311 6.2950 -0.3867
H -4.7913 4.9993 -2.0454
H -5.1569 1.3593 -2.6910
H -4.4654 4.1606 -3.9399
H -5.9439 3.2203 -4.3056
H -4.3118 2.5925 -4.6944
H -2.9733 3.4011 -1.9430
H -2.7214 1.9114 -2.9043
H -3.2824 1.7766 -1.1314
