79
 
N -0.6658 1.1830 0.0008
C 0.3934 0.8360 0.8652
F 0.9523 1.5338 1.8154
C 1.0496 -0.3789 0.8744
C 0.7139 -1.3490 -0.0032
F 1.3675 -2.5337 0.0227
C -0.2806 -1.0827 -0.9083
C -0.9584 0.1517 -0.9058
F -1.9021 0.1671 -1.8624
Pt -1.6944 3.0195 -0.0033
C -2.7200 4.9159 0.0157
N -2.0828 6.0992 0.1172
C -0.5516 6.4889 0.4281
C 0.2646 7.6809 -0.0181
C -0.1826 8.8628 -0.8971
C -0.6897 8.5128 -2.3439
C -1.2529 9.4386 -0.1937
C 1.6131 7.8964 0.3723
C 2.2845 7.0691 1.2353
C 1.6830 5.9575 1.6298
C 0.3778 5.6645 1.1905
C 0.1553 4.3010 1.4816
C 1.3018 3.5008 0.6355
C -0.3282 4.1738 2.9228
C -3.2758 6.9640 -0.1549
C -4.1829 6.2178 -0.9994
N -4.1971 4.9909 -0.2722
C -5.3407 4.0158 -0.1121
C -6.6295 4.2881 -0.7438
C -7.0269 5.6577 -1.3338
C -8.3572 5.9163 -1.9850
C -7.2527 6.6946 -0.2741
C -7.5795 3.2645 -0.8883
C -7.3775 1.9964 -0.3800
C -6.2892 1.7510 0.4029
C -5.2822 2.7073 0.6154
C -4.2571 2.1494 1.6430
C -4.8000 1.7744 3.0273
C -3.7174 0.9411 1.1341
H 1.8569 -0.5459 1.5848
H -0.5462 -1.8525 -1.6169
H 0.5467 9.6871 -0.8620
H -1.4464 7.6732 -2.3374
H 0.1564 8.2335 -2.9596
H -1.2885 9.3905 -2.7123
H -1.7403 8.5278 -0.4336
H -1.8860 10.2512 -0.5645
H -0.9404 9.6061 0.8640
H 2.1443 8.7531 0.0026
H 3.2880 7.2280 1.5818
H 2.2539 5.2328 2.2414
H -0.8639 4.0595 1.3133
H 2.1098 4.0318 0.0982
H 0.8327 3.0089 -0.2421
H 2.0364 2.8006 1.0365
H 0.5685 4.4313 3.0591
H -0.3895 3.1465 3.3043
H -0.1639 4.8858 3.7786
H -3.3118 7.7972 -0.9053
H -3.7795 7.2133 0.8201
H -3.9655 6.0976 -2.0787
H -4.9261 6.9559 -1.1690
H -6.2250 5.7366 -2.0947
H -9.1914 5.8727 -1.2281
H -8.5292 5.2424 -2.8115
H -8.3148 6.9739 -2.3867
H -7.6040 6.3670 0.7131
H -7.3249 7.7687 -0.4735
H -6.3823 6.5908 -0.2953
H -8.4975 3.4483 -1.4261
H -8.0975 1.2050 -0.5455
H -6.2447 0.7765 0.8584
H -3.3725 2.8066 1.7158
H -5.7239 1.1620 2.9256
H -4.9700 2.6916 3.5953
H -4.0448 1.1316 3.5556
H -4.6022 0.3032 1.1453
H -2.9699 0.3357 1.6586
H -3.2481 1.3438 0.1971
