50
 
N -1.4108 -0.2984 -0.0669
C -0.6828 -1.3461 -0.5805
C 0.6674 -1.5633 -0.1965
O 1.3434 -2.7097 -0.4908
C 0.7791 -3.7534 -1.1948
C 1.3106 -0.5723 0.5248
C 0.6175 0.5863 0.8613
C -0.7696 0.6560 0.6555
Pt -3.4657 -0.2582 -0.2850
P -5.9318 -0.2536 -0.5724
C -6.6876 1.3509 -0.6382
C -7.4118 1.7614 -1.7617
C -7.6808 3.1185 -1.9575
C -7.3829 4.0365 -0.9648
C -6.8020 3.6033 0.2230
C -6.3574 2.2842 0.3399
C -6.2682 -1.2814 -2.0344
C -7.0452 -2.4576 -1.9942
C -6.9976 -3.3761 -3.0306
C -6.3912 -3.0322 -4.2133
C -5.8616 -1.7541 -4.3654
C -5.7213 -0.9167 -3.2551
C -6.5886 -1.0182 0.9854
C -5.6984 -1.4352 1.9703
C -6.1512 -2.0723 3.1183
C -7.4822 -2.4312 3.2366
C -8.3755 -2.0216 2.2592
O -9.5525 -2.3208 2.3691
N -7.9286 -1.2663 1.1871
H -1.1497 -2.0715 -1.2148
H 1.4748 -4.6079 -1.3024
H 0.5130 -3.3845 -2.2020
H -0.1389 -4.1109 -0.6809
H 2.3471 -0.6971 0.8112
H 1.1492 1.4084 1.3071
H -1.3286 1.4879 1.0412
H -7.7082 1.0539 -2.5055
H -8.1310 3.4733 -2.8681
H -7.6196 5.0769 -1.1239
H -6.6675 4.3020 1.0281
H -5.7510 1.9953 1.1872
H -7.6560 -2.7457 -1.1854
H -7.4390 -4.3565 -2.9216
H -6.3728 -3.7536 -5.0090
H -5.5123 -1.4458 -5.3273
H -5.1842 0.0104 -3.3372
H -4.6528 -1.2572 1.8810
H -5.4574 -2.2953 3.9102
H -7.8247 -2.9962 4.0895
H -8.6317 -0.8874 0.5226
