54
 
N -1.4210 -0.5841 0.0065
C -0.5393 -0.4715 -1.0220
C 0.7874 -0.8927 -0.8691
C 1.2606 -1.3757 0.3728
N 2.6093 -1.8945 0.5327
C 3.5747 -1.9666 -0.5680
C 3.0808 -2.4513 1.7987
C 0.3301 -1.3552 1.4432
C -0.9988 -0.9965 1.2274
Pt -3.4288 -0.4514 -0.2322
P -5.8441 -0.3138 -0.4336
O -6.7780 1.0895 -0.7928
C -6.1652 1.7344 -1.9202
C -6.8215 3.0785 -2.3001
C -4.6447 2.0034 -1.8115
O -6.0843 -1.0138 -1.9960
C -5.6628 -2.3828 -2.0619
C -6.0777 -2.9159 -3.4342
C -4.1498 -2.4866 -1.9664
O -6.5983 -0.9100 0.9900
C -6.2063 -0.1438 2.0899
C -6.8802 -0.6197 3.3968
C -4.7008 -0.2337 2.3015
H -0.8591 -0.1492 -1.9951
H 1.3882 -0.8499 -1.7564
H 3.2312 -1.5898 -1.5376
H 3.8593 -3.0237 -0.7614
H 4.4769 -1.3728 -0.3205
H 2.3561 -2.4451 2.6167
H 3.9521 -1.8741 2.1626
H 3.3469 -3.5215 1.6711
H 0.5498 -1.6478 2.4496
H -1.7134 -1.1245 2.0299
H -6.3348 1.0604 -2.7676
H -6.6462 3.8640 -1.5291
H -7.9002 2.9767 -2.4935
H -6.3990 3.4472 -3.2677
H -4.4265 2.7695 -1.0405
H -4.2743 2.3678 -2.7927
H -4.0706 1.0764 -1.6025
H -6.1353 -3.0480 -1.2867
H -5.6857 -2.2325 -4.2312
H -7.1783 -2.9390 -3.4389
H -5.7372 -3.9598 -3.6276
H -3.6756 -1.8285 -2.7219
H -3.8098 -3.5305 -2.1018
H -3.8411 -2.2000 -0.9655
H -6.5247 0.8976 1.9041
H -6.6313 -1.6846 3.6252
H -7.9738 -0.4749 3.4033
H -6.5364 0.0154 4.2422
H -4.3958 -1.2745 2.5006
H -4.4284 0.4289 3.1360
H -4.1777 0.1437 1.4401
