46
 
P 1.0830 -0.0003 -0.0558
O 0.0439 -0.5598 1.1893
C 0.5610 -1.8607 1.5126
C -0.1410 -2.5117 2.6902
O 0.5603 1.6127 -0.2259
C 0.8187 2.3469 0.9312
C 2.3210 2.4682 1.1860
O 0.6062 -1.1945 -1.1983
C -0.8160 -1.1171 -1.3242
C -1.3532 -2.2161 -2.2177
Pt 3.5430 -0.0003 -0.0558
P 6.0030 -0.0003 -0.0558
C 6.9189 1.4472 0.5430
C 6.4988 -1.2719 1.1385
C 6.4700 -0.1992 -1.7757
C 5.4864 -0.3153 -2.7611
C 5.8553 -0.5906 -4.0850
C 7.2043 -0.7517 -4.4243
C 8.1907 -0.6258 -3.4433
C 7.8268 -0.3500 -2.1207
H 1.6556 -1.8483 1.7463
H 0.3857 -2.5712 0.6757
H 0.1134 -1.9970 3.6373
H 0.2036 -3.5710 2.7645
H -1.2364 -2.5166 2.5238
H 0.2493 1.9459 1.7971
H 0.4147 3.3666 0.7416
H 2.7774 1.4851 1.4254
H 2.4828 3.1435 2.0452
H 2.8068 2.8764 0.2747
H -1.1297 -0.1306 -1.7275
H -1.3538 -1.3049 -0.3691
H -0.9629 -2.0942 -3.2446
H -2.4654 -2.1508 -2.2361
H -1.0729 -3.2118 -1.8108
H 6.5749 1.6348 1.5879
H 6.5720 2.3265 -0.0462
H 8.0143 1.3529 0.5104
H 6.1317 -1.0554 2.1576
H 7.6106 -1.3286 1.1381
H 6.1164 -2.2532 0.7852
H 4.4395 -0.2247 -2.4920
H 5.0954 -0.6999 -4.8462
H 7.4851 -0.9850 -5.4442
H 9.2341 -0.7614 -3.7058
H 8.6028 -0.2846 -1.3670
