90
 
P 1.0815 0.0297 -0.0498
C 0.7778 0.7351 -1.8887
C -0.5849 1.0988 -2.6001
C -1.1997 2.4075 -2.0940
C -0.2257 3.6069 -2.1050
C 1.1759 3.2431 -1.5943
C 1.6959 1.9524 -2.2315
C 0.3248 -1.7345 -0.1169
C 1.0295 -2.5963 -1.1397
C 2.4955 -2.7402 -0.7158
C 2.6840 -3.3323 0.7051
C 1.7676 -2.7063 1.7522
C 0.3342 -2.6221 1.1769
C 0.5953 1.2601 1.4298
C -0.9236 1.6457 1.6266
C -1.8099 0.4775 2.0841
C -1.3433 -0.0323 3.4570
C 0.1786 -0.2317 3.5194
C 1.0197 0.8852 2.8958
Pt 3.5415 0.0297 -0.0498
P 6.0015 0.0297 -0.0498
C 6.8674 1.3746 0.8273
C 7.7102 1.2138 1.9488
C 8.2527 2.3432 2.5893
C 7.9632 3.6298 2.1241
C 7.1064 3.7971 1.0396
C 6.5531 2.6822 0.4120
C 6.5232 -1.4925 0.7937
C 7.2902 -2.4222 0.0591
C 7.7028 -3.6268 0.6309
C 7.3682 -3.9167 1.9516
C 6.6288 -2.9946 2.7018
C 6.2027 -1.7849 2.1268
C 6.4716 0.1848 -1.8317
C 6.0316 -0.7867 -2.7777
C 5.1206 -1.9176 -2.4291
C 6.4787 -0.7429 -4.1076
C 7.3594 0.2439 -4.5284
C 7.7884 1.2141 -3.6293
C 7.3541 1.1899 -2.2970
H 1.1909 -0.0640 -2.5339
H -1.3201 0.2713 -2.5887
H -0.3822 1.2887 -3.6894
H -1.5096 2.1701 -1.1126
H -2.1267 2.6923 -2.6400
H -0.6393 4.4331 -1.4789
H -0.1329 3.9954 -3.1414
H 1.1458 3.0971 -0.5245
H 1.8676 4.0919 -1.7908
H 2.7443 1.7480 -1.9394
H 1.7171 2.1322 -3.3391
H -0.7500 -1.6306 -0.3833
H 0.9184 -2.1449 -2.1362
H 0.5410 -3.5949 -1.1873
H 2.9125 -1.7426 -0.7678
H 3.0310 -3.3692 -1.4430
H 3.7407 -3.2231 1.0408
H 2.4305 -4.4062 0.6624
H 2.1667 -1.7042 2.0123
H 1.7860 -3.3131 2.6904
H -0.4778 -2.3508 1.8770
H -0.0140 -3.6583 0.9652
H 1.1537 2.1871 1.2620
H -1.3754 2.1224 0.7874
H -1.0123 2.4389 2.4057
H -1.7873 -0.3085 1.3066
H -2.8745 0.8013 2.1897
H -1.8703 -0.9880 3.6966
H -1.6210 0.7031 4.2394
H 0.4341 -1.0353 2.9425
H 0.4950 -0.5145 4.5433
H 2.0953 0.6274 2.9436
H 0.8630 1.7640 3.5667
H 7.9392 0.2418 2.3571
H 8.8941 2.2293 3.4545
H 8.3879 4.5000 2.6104
H 6.8603 4.7908 0.6865
H 5.8681 2.8397 -0.4122
H 7.5739 -2.2260 -0.9661
H 8.2808 -4.3357 0.0480
H 7.6864 -4.8550 2.3908
H 6.3846 -3.2251 3.7295
H 5.6305 -1.0845 2.7175
H 4.8921 -1.9353 -1.3608
H 5.6053 -2.8860 -2.6730
H 4.1747 -1.8191 -3.0014
H 6.1603 -1.4985 -4.8176
H 7.7156 0.2470 -5.5518
H 8.4793 1.9768 -3.9660
H 7.7540 1.9501 -1.6518
