69
 
P 0.9453 -0.0522 0.0655
C 0.1433 -0.4928 1.6261
C -1.2360 -0.4441 1.8206
C -1.7814 -0.8107 3.0593
C -0.9561 -1.2480 4.1026
C 0.4228 -1.3280 3.9111
C 0.9734 -0.9479 2.6807
C 0.3533 1.6483 0.0209
C 0.7327 2.6202 0.9434
C 0.1703 3.9035 0.8715
C -0.7670 4.2192 -0.1212
C -1.1257 3.2618 -1.0688
C -0.5639 1.9834 -1.0037
C 0.5677 -1.3254 -1.1768
C -0.1825 -2.4809 -0.8839
C -0.4458 -3.4277 -1.8866
C 0.0275 -3.2298 -3.1863
C 0.7549 -2.0788 -3.4916
C 1.0233 -1.1321 -2.4942
Pt 3.4053 -0.0522 0.0655
P 5.8653 -0.0522 0.0655
C 6.6037 1.1885 1.1718
C 6.1471 1.1781 2.5030
C 6.5256 2.1754 3.4057
C 7.3687 3.2051 2.9928
C 7.8317 3.2373 1.6730
C 7.4494 2.2378 0.7570
C 6.3902 -1.6312 0.7848
C 5.4801 -2.6424 1.1357
C 5.9493 -3.8561 1.6685
C 7.3200 -4.0625 1.8595
C 8.2275 -3.0629 1.5108
C 7.7665 -1.8586 0.9720
C 6.3508 0.1721 -1.6561
C 5.3843 0.2973 -2.6594
C 5.7915 0.4478 -3.9898
C 7.1503 0.4775 -4.3100
C 8.0931 0.3634 -3.2875
O 9.2835 0.3937 -3.5500
N 7.6768 0.2131 -1.9864
H -1.8786 -0.1201 1.0180
H -2.8486 -0.7587 3.2105
H -1.3856 -1.5306 5.0568
H 1.0591 -1.6848 4.7167
H 2.0498 -1.0266 2.5554
H 1.4514 2.3799 1.7112
H 0.4530 4.6539 1.5937
H -1.2146 5.2052 -0.1583
H -1.8461 3.5081 -1.8440
H -0.8687 1.2522 -1.7466
H -0.5696 -2.6602 0.1081
H -1.0184 -4.3185 -1.6600
H -0.1728 -3.9652 -3.9578
H 1.1105 -1.9223 -4.5033
H 1.5853 -0.2449 -2.7558
H 5.4575 0.4130 2.8370
H 6.1461 2.1611 4.4208
H 7.6474 3.9851 3.6934
H 8.4685 4.0563 1.3615
H 7.7872 2.3205 -0.2650
H 4.4175 -2.5053 0.9884
H 5.2550 -4.6430 1.9343
H 7.6815 -4.9964 2.2748
H 9.2898 -3.2212 1.6564
H 8.4906 -1.1008 0.7079
H 4.3300 0.2690 -2.4158
H 5.0548 0.5376 -4.7770
H 7.4662 0.5879 -5.3413
H 8.4014 0.1316 -1.2388
