84
 
P 1.0445 0.0430 0.0786
C 0.1276 1.0016 -1.1867
C -0.9993 0.5552 -1.9000
C -1.4879 1.3140 -2.9906
C -0.8350 2.4864 -3.4010
C 0.2989 2.9010 -2.7301
C 0.7471 2.1639 -1.6507
C 0.5655 -1.6744 -0.2260
C 0.9253 -2.2784 -1.4408
C 0.4882 -3.5706 -1.7473
C -0.3110 -4.2726 -0.8429
C -0.6579 -3.6893 0.3794
C -0.2201 -2.3940 0.6920
C 0.5744 0.8648 1.6242
C -0.7867 0.8949 1.9901
C -1.1930 1.4980 3.1857
C -0.2461 2.0752 4.0319
C 1.1106 2.0260 3.6945
C 1.5241 1.4141 2.4995
Pt 3.5045 0.0430 0.0786
C 5.6545 0.0430 0.0786
N 6.3677 -1.0630 0.0303
C 5.9523 -2.4927 -0.0544
C 6.7882 -3.5217 -0.6937
C 8.1395 -3.4452 -1.4024
C 6.3329 -4.8611 -0.7687
C 5.1186 -5.2627 -0.2547
C 4.6191 -6.6638 -0.3033
C 4.3181 -4.3491 0.3317
C 4.6861 -3.0203 0.4400
C 3.5861 -2.3038 1.0384
C 7.7552 -0.6517 0.0417
C 7.7624 0.7925 -0.3333
N 6.4592 1.2399 0.0273
C 6.1448 2.5633 0.5465
C 4.8934 3.1669 0.2878
C 3.8820 2.5176 -0.5658
C 4.5696 4.4427 0.8008
C 5.4748 5.1452 1.5866
C 5.1560 6.5082 2.1248
C 6.7017 4.5722 1.8731
C 7.0613 3.3132 1.3708
C 8.4192 2.8403 1.8040
H -1.4844 -0.3727 -1.6388
H -2.3565 0.9889 -3.5413
H -1.1820 3.0711 -4.2435
H 0.8542 3.7822 -3.0411
H 1.6076 2.5088 -1.2110
H 1.5295 -1.7405 -2.1594
H 0.7558 -4.0218 -2.6941
H -0.6649 -5.2658 -1.0929
H -1.2802 -4.2387 1.0753
H -0.5179 -1.9541 1.6339
H -1.5392 0.4420 1.3563
H -2.2424 1.5196 3.4570
H -0.5650 2.5532 4.9514
H 1.8394 2.4639 4.3642
H 2.5780 1.3714 2.2655
H 8.7729 -2.5962 -1.5822
H 7.9847 -3.7676 -2.4526
H 8.8309 -4.1460 -0.8914
H 6.9384 -5.6188 -1.2499
H 5.3424 -7.3340 -0.7985
H 3.6440 -6.6897 -0.8398
H 4.4556 -6.9975 0.7448
H 3.3538 -4.6976 0.6991
H 2.6713 -2.8171 1.3760
H 3.1582 -1.9670 0.0568
H 3.9477 -1.7154 1.9047
H 8.4187 -0.9882 -0.7066
H 8.1619 -0.8311 1.0609
H 7.8436 0.9508 -1.4371
H 8.6618 1.1737 0.1114
H 4.2446 1.6720 -1.1448
H 3.5908 3.2837 -1.3271
H 3.0735 2.2515 0.1172
H 3.6122 4.9033 0.5742
H 4.1499 6.8508 1.8053
H 5.9090 7.2365 1.7525
H 5.1895 6.4837 3.2343
H 7.3945 5.1250 2.4964
H 8.9081 3.5115 2.5339
H 9.1167 2.8952 0.9491
H 8.3296 1.8406 2.2860
