44
 
P 1.0258 -0.0566 -0.0783
C 0.2417 -1.0227 1.2310
C -1.1368 -1.0774 1.4222
C -1.6735 -1.8928 2.4261
C -0.8386 -2.6673 3.2397
C 0.5430 -2.6291 3.0541
C 1.0844 -1.8076 2.0572
C 0.4086 1.5777 0.3129
C 0.7642 2.2812 1.4569
C 0.2035 3.5448 1.6919
C -0.7084 4.1031 0.7844
C -1.0449 3.4130 -0.3792
C -0.4833 2.1582 -0.6188
C 0.6712 -1.0110 -1.5479
C -0.6555 -1.2818 -1.9559
C -0.8995 -2.0256 -3.1129
C 0.1740 -2.4887 -3.8738
C 1.4933 -2.1944 -3.4851
C 1.7509 -1.4509 -2.3153
Pt 3.4858 -0.0566 -0.0783
O 5.5358 -0.0566 -0.0783
C 6.2916 0.5233 0.8200
C 7.6123 0.2967 0.4837
C 7.5944 -0.4565 -0.6759
C 6.2654 -0.6514 -0.9881
H -1.7901 -0.4940 0.7969
H -2.7425 -1.9293 2.5675
H -1.2631 -3.3007 4.0094
H 1.1877 -3.2423 3.6781
H 2.1627 -1.8090 1.9232
H 1.4679 1.8513 2.1527
H 0.4714 4.0904 2.5827
H -1.1519 5.0712 0.9791
H -1.7433 3.8462 -1.0896
H -0.7611 1.6387 -1.5316
H -1.5093 -0.9233 -1.3971
H -1.9194 -2.2425 -3.4213
H -0.0237 -3.0710 -4.7676
H 2.3085 -2.5496 -4.0974
H 2.7765 -1.1967 -1.9753
H 5.9261 1.0759 1.6749
H 8.4879 0.6376 1.0195
H 8.4499 -0.8218 -1.2283
H 5.8711 -1.1982 -1.8345
